<?xml version="1.0" encoding="UTF-8"?>

<!-- generated on Wed Dec  4 01:47:14 2019 by Eclipse SUMO netedit Version 1.3.1
<configuration xmlns:xsi="http://www.w3.org/2001/XMLSchema-instance" xsi:noNamespaceSchemaLocation="http://sumo.dlr.de/xsd/netconvertConfiguration.xsd">

    <input>
        <sumo-net-file value="/Users/david/Development/tum/koairy/koairy-backend/app/tools/simulation/data/traffic-input/net/road-network-default.net.xml"/>
    </input>

    <output>
        <output-file value="/Users/david/Development/tum/koairy/koairy-backend/app/tools/simulation/data/traffic-input/net/road-network-default.net.xml"/>
        <output.street-names value="true"/>
    </output>

    <processing>
        <geometry.max-grade.fix value="false"/>
        <offset.disable-normalization value="true"/>
        <opposites.guess.fix-lengths value="true"/>
        <lefthand value="false"/>
    </processing>

    <junctions>
        <no-turnarounds value="true"/>
        <junctions.corner-detail value="5"/>
        <junctions.limit-turn-speed value="5.5"/>
        <rectangular-lane-cut value="false"/>
    </junctions>

    <pedestrian>
        <walkingareas value="false"/>
    </pedestrian>

    <netedit>
        <additional-files value="/Users/david/Development/tum/koairy/koairy-backend/app/tools/simulation/data/traffic-input/net/new_det.add.xml"/>
    </netedit>

</configuration>
-->

<additional xmlns:xsi="http://www.w3.org/2001/XMLSchema-instance" xsi:noNamespaceSchemaLocation="http://sumo.dlr.de/xsd/additional_file.xsd">
    <e1Detector id="det_384_0" lane="22327902#0_0" pos="6.41" freq="600.00" file="det.out.xml"/>
    <e1Detector id="det_384_1" lane="-22327902#0_0" pos="7.65" freq="600.00" file="det.out.xml"/>
    <e1Detector id="det_670_0" lane="477543784#1_0" pos="50.70" freq="600.00" file="det.out.xml"/>
    <e1Detector id="det_670_1" lane="-477543784#1_0" pos="119.76" freq="600.00" file="det.out.xml"/>
    <e1Detector id="det_671_0" lane="421617196_0" pos="32.49" freq="600.00" file="det.out.xml"/>
    <e1Detector id="det_671_1" lane="-421617196_0" pos="7.05" freq="900.00" file="det.out.xml"/>
    <e1Detector id="det_672_0" lane="-4294652#1_0" pos="54.68" freq="600.00" file="det.out.xml"/>
    <e1Detector id="det_672_1" lane="4294652#1_0" pos="50.15" freq="600.00" file="det.out.xml"/>
</additional>
