<?xml version="1.0" encoding="UTF-8"?>

<!-- generated on Sat Nov 30 00:51:55 2019 by Eclipse SUMO netconvert Version 1.3.1
<configuration xmlns:xsi="http://www.w3.org/2001/XMLSchema-instance" xsi:noNamespaceSchemaLocation="http://sumo.dlr.de/xsd/netconvertConfiguration.xsd">

    <input>
        <osm-files value="384_road-network.osm"/>
    </input>

    <output>
        <output-file value="../net/road-network_384.net.xml"/>
    </output>

    <projection>
        <proj.utm value="true"/>
    </projection>

</configuration>
-->

<net version="1.3" junctionCornerDetail="5" limitTurnSpeed="5.50" xmlns:xsi="http://www.w3.org/2001/XMLSchema-instance" xsi:noNamespaceSchemaLocation="http://sumo.dlr.de/xsd/net_file.xsd">

    <location netOffset="-702838.85,-5336635.86" convBoundary="0.00,0.00,3248.22,2210.23" origBoundary="11.727245,48.150595,11.771518,48.169836" projParameter="+proj=utm +zone=32 +ellps=WGS84 +datum=WGS84 +units=m +no_defs"/>

    <type id="highway.bridleway" priority="1" numLanes="1" speed="2.78" allow="pedestrian" oneway="1" width="2.00"/>
    <type id="highway.bus_guideway" priority="1" numLanes="1" speed="27.78" allow="bus" oneway="1"/>
    <type id="highway.cycleway" priority="1" numLanes="1" speed="8.33" allow="bicycle" oneway="0" width="1.00"/>
    <type id="highway.footway" priority="1" numLanes="1" speed="2.78" allow="pedestrian" oneway="1" width="2.00"/>
    <type id="highway.ford" priority="1" numLanes="1" speed="2.78" allow="army" oneway="0"/>
    <type id="highway.living_street" priority="2" numLanes="1" speed="2.78" disallow="tram rail_urban rail rail_electric rail_fast ship" oneway="0"/>
    <type id="highway.motorway" priority="14" numLanes="2" speed="39.44" allow="private emergency authority army vip passenger hov taxi bus coach delivery truck trailer motorcycle evehicle custom1 custom2" oneway="1"/>
    <type id="highway.motorway_link" priority="9" numLanes="1" speed="22.22" allow="private emergency authority army vip passenger hov taxi bus coach delivery truck trailer motorcycle evehicle custom1 custom2" oneway="1"/>
    <type id="highway.path" priority="1" numLanes="1" speed="2.78" allow="pedestrian bicycle" oneway="1" width="2.00"/>
    <type id="highway.pedestrian" priority="1" numLanes="1" speed="2.78" allow="pedestrian" oneway="1" width="2.00"/>
    <type id="highway.primary" priority="12" numLanes="2" speed="27.78" disallow="tram rail_urban rail rail_electric rail_fast ship" oneway="0"/>
    <type id="highway.primary_link" priority="7" numLanes="1" speed="22.22" disallow="tram rail_urban rail rail_electric rail_fast ship" oneway="0"/>
    <type id="highway.raceway" priority="15" numLanes="2" speed="83.33" allow="vip" oneway="0"/>
    <type id="highway.residential" priority="3" numLanes="1" speed="13.89" disallow="tram rail_urban rail rail_electric rail_fast ship" oneway="0"/>
    <type id="highway.secondary" priority="11" numLanes="2" speed="27.78" disallow="tram rail_urban rail rail_electric rail_fast ship" oneway="0"/>
    <type id="highway.secondary_link" priority="6" numLanes="1" speed="22.22" disallow="tram rail_urban rail rail_electric rail_fast ship" oneway="0"/>
    <type id="highway.service" priority="1" numLanes="1" speed="5.56" allow="pedestrian delivery bicycle" oneway="0"/>
    <type id="highway.stairs" priority="1" numLanes="1" speed="1.39" allow="pedestrian" oneway="1" width="2.00"/>
    <type id="highway.step" priority="1" numLanes="1" speed="1.39" allow="pedestrian" oneway="1" width="2.00"/>
    <type id="highway.steps" priority="1" numLanes="1" speed="1.39" allow="pedestrian" oneway="1" width="2.00"/>
    <type id="highway.tertiary" priority="10" numLanes="1" speed="22.22" disallow="tram rail_urban rail rail_electric rail_fast ship" oneway="0"/>
    <type id="highway.tertiary_link" priority="5" numLanes="1" speed="22.22" disallow="tram rail_urban rail rail_electric rail_fast ship" oneway="0"/>
    <type id="highway.track" priority="1" numLanes="1" speed="5.56" disallow="tram rail_urban rail rail_electric rail_fast ship" oneway="0"/>
    <type id="highway.trunk" priority="13" numLanes="2" speed="27.78" disallow="pedestrian bicycle tram rail_urban rail rail_electric rail_fast ship" oneway="0"/>
    <type id="highway.trunk_link" priority="8" numLanes="1" speed="22.22" disallow="pedestrian bicycle tram rail_urban rail rail_electric rail_fast ship" oneway="0"/>
    <type id="highway.unclassified" priority="4" numLanes="1" speed="13.89" disallow="tram rail_urban rail rail_electric rail_fast ship" oneway="0"/>
    <type id="highway.unsurfaced" priority="1" numLanes="1" speed="8.33" disallow="tram rail_urban rail rail_electric rail_fast ship" oneway="0"/>
    <type id="railway.highspeed" priority="21" numLanes="1" speed="69.44" allow="rail_fast" oneway="1"/>
    <type id="railway.light_rail" priority="19" numLanes="1" speed="27.78" allow="rail_urban" oneway="1"/>
    <type id="railway.preserved" priority="16" numLanes="1" speed="27.78" allow="rail" oneway="1"/>
    <type id="railway.rail" priority="20" numLanes="1" speed="44.44" allow="rail" oneway="1"/>
    <type id="railway.subway" priority="18" numLanes="1" speed="27.78" allow="rail_urban" oneway="1"/>
    <type id="railway.tram" priority="17" numLanes="1" speed="13.89" allow="tram" oneway="1"/>

    <edge id=":10737727_0" function="internal">
        <lane id=":10737727_0_0" index="0" disallow="tram rail_urban rail rail_electric rail_fast ship" speed="6.52" length="8.47" shape="2425.42,1586.62 2424.52,1584.50 2423.16,1583.12 2421.34,1582.46 2419.05,1582.54"/>
    </edge>
    <edge id=":10737727_1" function="internal">
        <lane id=":10737727_1_0" index="0" disallow="tram rail_urban rail rail_electric rail_fast ship" speed="8.34" length="13.12" shape="2425.42,1586.62 2424.95,1583.07 2425.55,1580.04 2427.24,1577.52 2430.00,1575.51"/>
    </edge>
    <edge id=":10737727_2" function="internal">
        <lane id=":10737727_2_0" index="0" disallow="tram rail_urban rail rail_electric rail_fast ship" speed="2.78" length="4.67" shape="2425.42,1586.62 2425.88,1585.25 2426.55,1584.66 2427.43,1584.84 2428.51,1585.80"/>
    </edge>
    <edge id=":10737727_3" function="internal">
        <lane id=":10737727_3_0" index="0" disallow="tram rail_urban rail rail_electric rail_fast ship" speed="7.00" length="8.77" shape="2431.50,1578.33 2429.68,1579.67 2428.57,1581.36 2428.18,1583.40 2428.51,1585.80"/>
    </edge>
    <edge id=":10737727_4" function="internal">
        <lane id=":10737727_4_0" index="0" disallow="tram rail_urban rail rail_electric rail_fast ship" speed="13.89" length="13.21" shape="2431.50,1578.33 2428.38,1579.86 2425.46,1580.99 2422.45,1581.85 2419.05,1582.54"/>
    </edge>
    <edge id=":10737727_5" function="internal">
        <lane id=":10737727_5_0" index="0" disallow="tram rail_urban rail rail_electric rail_fast ship" speed="3.65" length="2.34" shape="2431.50,1578.33 2430.06,1578.19 2429.34,1577.67"/>
    </edge>
    <edge id=":10737727_9" function="internal">
        <lane id=":10737727_9_0" index="0" disallow="tram rail_urban rail rail_electric rail_fast ship" speed="3.65" length="2.34" shape="2429.34,1577.67 2429.31,1576.78 2430.00,1575.51"/>
    </edge>
    <edge id=":10737727_6" function="internal">
        <lane id=":10737727_6_0" index="0" disallow="tram rail_urban rail rail_electric rail_fast ship" speed="13.89" length="12.20" shape="2418.50,1579.39 2421.75,1578.75 2424.44,1578.01 2427.03,1576.98 2430.00,1575.51"/>
    </edge>
    <edge id=":10737727_7" function="internal">
        <lane id=":10737727_7_0" index="0" disallow="tram rail_urban rail rail_electric rail_fast ship" speed="8.02" length="5.29" shape="2418.50,1579.39 2422.10,1579.27 2423.68,1579.84"/>
    </edge>
    <edge id=":10737727_8" function="internal">
        <lane id=":10737727_8_0" index="0" disallow="tram rail_urban rail rail_electric rail_fast ship" speed="3.65" length="2.34" shape="2418.50,1579.39 2419.82,1579.97 2420.35,1580.69"/>
    </edge>
    <edge id=":10737727_10" function="internal">
        <lane id=":10737727_10_0" index="0" disallow="tram rail_urban rail rail_electric rail_fast ship" speed="8.02" length="8.02" shape="2423.68,1579.84 2424.97,1580.30 2427.11,1582.47 2428.51,1585.80"/>
    </edge>
    <edge id=":10737727_11" function="internal">
        <lane id=":10737727_11_0" index="0" disallow="tram rail_urban rail rail_electric rail_fast ship" speed="3.65" length="2.34" shape="2420.35,1580.69 2420.09,1581.55 2419.05,1582.54"/>
    </edge>
    <edge id=":10737743_0" function="internal">
        <lane id=":10737743_0_0" index="0" disallow="tram rail_urban rail rail_electric rail_fast ship" speed="3.65" length="4.67" shape="2775.36,1544.34 2776.54,1545.18 2776.91,1545.99 2776.48,1546.78 2775.26,1547.54"/>
    </edge>
    <edge id=":10737804_0" function="internal">
        <lane id=":10737804_0_0" index="0" disallow="tram rail_urban rail rail_electric rail_fast ship" speed="7.41" length="7.57" shape="2407.05,1584.63 2405.06,1585.19 2403.47,1586.14 2402.27,1587.46 2401.47,1589.15"/>
    </edge>
    <edge id=":10737804_1" function="internal">
        <lane id=":10737804_1_0" index="0" disallow="tram rail_urban rail rail_electric rail_fast ship" speed="8.11" length="3.96" shape="2407.05,1584.63 2404.02,1584.75 2403.12,1584.49"/>
    </edge>
    <edge id=":10737804_2" function="internal">
        <lane id=":10737804_2_0" index="0" disallow="tram rail_urban rail rail_electric rail_fast ship" speed="3.65" length="2.14" shape="2407.05,1584.63 2405.73,1584.04 2405.31,1583.48"/>
    </edge>
    <edge id=":10737804_9" function="internal">
        <lane id=":10737804_9_0" index="0" disallow="tram rail_urban rail rail_electric rail_fast ship" speed="8.11" length="7.45" shape="2403.12,1584.49 2401.45,1584.00 2399.32,1582.36 2397.64,1579.85"/>
    </edge>
    <edge id=":10737804_10" function="internal">
        <lane id=":10737804_10_0" index="0" disallow="tram rail_urban rail rail_electric rail_fast ship" speed="3.65" length="2.53" shape="2405.31,1583.48 2405.20,1583.32 2405.45,1582.47 2406.50,1581.47"/>
    </edge>
    <edge id=":10737804_3" function="internal">
        <lane id=":10737804_3_0" index="0" disallow="tram rail_urban rail rail_electric rail_fast ship" speed="6.59" length="7.26" shape="2400.51,1578.43 2401.58,1580.03 2402.94,1581.07 2404.57,1581.55 2406.50,1581.47"/>
    </edge>
    <edge id=":10737804_4" function="internal">
        <lane id=":10737804_4_0" index="0" disallow="tram rail_urban rail rail_electric rail_fast ship" speed="11.11" length="11.18" shape="2400.51,1578.43 2401.81,1581.33 2402.40,1583.69 2402.28,1586.10 2401.47,1589.15"/>
    </edge>
    <edge id=":10737804_5" function="internal">
        <lane id=":10737804_5_0" index="0" disallow="tram rail_urban rail rail_electric rail_fast ship" speed="3.65" length="4.67" shape="2400.51,1578.43 2400.33,1579.86 2399.79,1580.57 2398.89,1580.57 2397.64,1579.85"/>
    </edge>
    <edge id=":10737804_6" function="internal">
        <lane id=":10737804_6_0" index="0" disallow="tram rail_urban rail rail_electric rail_fast ship" speed="9.93" length="8.72" shape="2398.42,1588.17 2399.10,1585.72 2399.21,1583.92 2398.73,1582.17 2397.64,1579.85"/>
    </edge>
    <edge id=":10737804_7" function="internal">
        <lane id=":10737804_7_0" index="0" disallow="tram rail_urban rail rail_electric rail_fast ship" speed="8.85" length="11.06" shape="2398.42,1588.17 2399.61,1585.65 2401.35,1583.69 2403.64,1582.30 2406.50,1581.47"/>
    </edge>
    <edge id=":10737804_8" function="internal">
        <lane id=":10737804_8_0" index="0" disallow="tram rail_urban rail rail_electric rail_fast ship" speed="3.65" length="2.54" shape="2398.42,1588.17 2399.55,1587.27 2400.44,1587.14 2400.58,1587.28"/>
    </edge>
    <edge id=":10737804_11" function="internal">
        <lane id=":10737804_11_0" index="0" disallow="tram rail_urban rail rail_electric rail_fast ship" speed="3.65" length="2.13" shape="2400.58,1587.28 2401.07,1587.76 2401.47,1589.15"/>
    </edge>
    <edge id=":10737985_0" function="internal">
        <lane id=":10737985_0_0" index="0" disallow="tram rail_urban rail rail_electric rail_fast ship" speed="6.19" length="8.17" shape="2233.29,1556.17 2233.01,1553.71 2232.16,1551.97 2230.74,1550.94 2228.76,1550.62"/>
    </edge>
    <edge id=":10737985_1" function="internal">
        <lane id=":10737985_1_0" index="0" disallow="tram rail_urban rail rail_electric rail_fast ship" speed="11.11" length="14.43" shape="2233.29,1556.17 2233.12,1541.74"/>
    </edge>
    <edge id=":10737985_2" function="internal">
        <lane id=":10737985_2_0" index="0" disallow="tram rail_urban rail rail_electric rail_fast ship" speed="7.82" length="5.85" shape="2233.29,1556.17 2234.08,1553.03 2235.59,1550.91"/>
    </edge>
    <edge id=":10737985_3" function="internal">
        <lane id=":10737985_3_0" index="0" disallow="tram rail_urban rail rail_electric rail_fast ship" speed="3.65" length="2.34" shape="2233.29,1556.17 2234.09,1554.97 2234.89,1554.57"/>
    </edge>
    <edge id=":10737985_16" function="internal">
        <lane id=":10737985_16_0" index="0" disallow="tram rail_urban rail rail_electric rail_fast ship" speed="7.82" length="7.64" shape="2235.59,1550.91 2236.12,1550.18 2238.94,1548.10 2242.07,1547.29"/>
    </edge>
    <edge id=":10737985_17" function="internal">
        <lane id=":10737985_17_0" index="0" disallow="tram rail_urban rail rail_electric rail_fast ship" speed="3.65" length="2.34" shape="2234.89,1554.57 2235.69,1554.97 2236.49,1556.17"/>
    </edge>
    <edge id=":10737985_4" function="internal">
        <lane id=":10737985_4_0" index="0" disallow="tram rail_urban rail rail_electric rail_fast ship" speed="6.53" length="9.08" shape="2242.08,1550.49 2239.63,1550.85 2237.89,1551.92 2236.84,1553.69 2236.49,1556.17"/>
    </edge>
    <edge id=":10737985_5" function="internal">
        <lane id=":10737985_5_0" index="0" disallow="tram rail_urban rail rail_electric rail_fast ship" speed="8.33" length="13.32" shape="2242.08,1550.49 2228.76,1550.62"/>
    </edge>
    <edge id=":10737985_6" function="internal">
        <lane id=":10737985_6_0" index="0" disallow="tram rail_urban rail rail_electric rail_fast ship" speed="7.88" length="13.51" shape="2242.08,1550.49 2238.93,1549.72 2236.07,1547.69 2233.97,1544.87 2233.12,1541.74"/>
    </edge>
    <edge id=":10737985_7" function="internal">
        <lane id=":10737985_7_0" index="0" disallow="tram rail_urban rail rail_electric rail_fast ship" speed="3.65" length="4.67" shape="2242.08,1550.49 2240.88,1549.70 2240.48,1548.90 2240.87,1548.10 2242.07,1547.29"/>
    </edge>
    <edge id=":10737985_8" function="internal">
        <lane id=":10737985_8_0" index="0" disallow="tram rail_urban rail rail_electric rail_fast ship" speed="6.59" length="9.14" shape="2236.32,1541.66 2236.72,1544.13 2237.82,1545.89 2239.60,1546.95 2242.07,1547.29"/>
    </edge>
    <edge id=":10737985_9" function="internal">
        <lane id=":10737985_9_0" index="0" disallow="tram rail_urban rail rail_electric rail_fast ship" speed="11.11" length="14.51" shape="2236.32,1541.66 2236.49,1556.17"/>
    </edge>
    <edge id=":10737985_10" function="internal">
        <lane id=":10737985_10_0" index="0" disallow="tram rail_urban rail rail_electric rail_fast ship" speed="7.57" length="6.44" shape="2236.32,1541.66 2235.72,1544.70 2234.03,1547.58"/>
    </edge>
    <edge id=":10737985_11" function="internal">
        <lane id=":10737985_11_0" index="0" disallow="tram rail_urban rail rail_electric rail_fast ship" speed="3.65" length="2.34" shape="2236.32,1541.66 2235.54,1542.88 2234.75,1543.30"/>
    </edge>
    <edge id=":10737985_18" function="internal">
        <lane id=":10737985_18_0" index="0" disallow="tram rail_urban rail rail_electric rail_fast ship" speed="7.57" length="6.22" shape="2234.03,1547.58 2231.59,1549.74 2228.76,1550.62"/>
    </edge>
    <edge id=":10737985_19" function="internal">
        <lane id=":10737985_19_0" index="0" disallow="tram rail_urban rail rail_electric rail_fast ship" speed="3.65" length="2.34" shape="2234.75,1543.30 2233.94,1542.92 2233.12,1541.74"/>
    </edge>
    <edge id=":10737985_12" function="internal">
        <lane id=":10737985_12_0" index="0" disallow="tram rail_urban rail rail_electric rail_fast ship" speed="6.22" length="8.19" shape="2228.71,1547.42 2230.68,1547.04 2232.08,1545.96 2232.89,1544.20 2233.12,1541.74"/>
    </edge>
    <edge id=":10737985_13" function="internal">
        <lane id=":10737985_13_0" index="0" disallow="tram rail_urban rail rail_electric rail_fast ship" speed="8.33" length="13.37" shape="2228.71,1547.42 2242.07,1547.29"/>
    </edge>
    <edge id=":10737985_14" function="internal">
        <lane id=":10737985_14_0" index="0" disallow="tram rail_urban rail rail_electric rail_fast ship" speed="7.54" length="12.66" shape="2228.71,1547.42 2231.56,1548.21 2234.06,1550.31 2235.82,1553.15 2236.49,1556.17"/>
    </edge>
    <edge id=":10737985_15" function="internal">
        <lane id=":10737985_15_0" index="0" disallow="tram rail_urban rail rail_electric rail_fast ship" speed="3.65" length="4.67" shape="2228.71,1547.42 2229.92,1548.20 2230.34,1549.00 2229.95,1549.80 2228.76,1550.62"/>
    </edge>
    <edge id=":1149723732_0" function="internal">
        <lane id=":1149723732_0_0" index="0" allow="bicycle" speed="8.33" length="5.15" width="1.00" shape="1801.77,1283.00 1800.46,1282.22 1799.52,1281.75 1798.55,1281.37 1797.10,1280.87"/>
    </edge>
    <edge id=":1149723732_1" function="internal">
        <lane id=":1149723732_1_0" index="0" allow="bicycle" speed="2.04" length="0.73" width="1.00" shape="1801.77,1283.00 1801.58,1282.59 1801.60,1282.31"/>
    </edge>
    <edge id=":1149723732_4" function="internal">
        <lane id=":1149723732_4_0" index="0" allow="bicycle" speed="2.04" length="0.73" width="1.00" shape="1801.60,1282.31 1801.84,1282.16 1802.29,1282.14"/>
    </edge>
    <edge id=":1149723732_2" function="internal">
        <lane id=":1149723732_2_0" index="0" allow="bicycle" speed="8.33" length="5.37" width="1.00" shape="1797.42,1279.93 1798.93,1280.44 1799.95,1280.84 1800.92,1281.33 1802.29,1282.14"/>
    </edge>
    <edge id=":1149723732_3" function="internal">
        <lane id=":1149723732_3_0" index="0" allow="bicycle" speed="2.04" length="0.73" width="1.00" shape="1797.42,1279.93 1797.70,1280.28 1797.74,1280.56"/>
    </edge>
    <edge id=":1149723732_5" function="internal">
        <lane id=":1149723732_5_0" index="0" allow="bicycle" speed="2.04" length="0.73" width="1.00" shape="1797.74,1280.56 1797.54,1280.76 1797.10,1280.87"/>
    </edge>
    <edge id=":1149723825_0" function="internal">
        <lane id=":1149723825_0_0" index="0" disallow="tram rail_urban rail rail_electric rail_fast ship" speed="13.89" length="5.00" shape="1721.36,1322.89 1718.55,1327.02"/>
    </edge>
    <edge id=":1149723825_1" function="internal">
        <lane id=":1149723825_1_0" index="0" disallow="tram rail_urban rail rail_electric rail_fast ship" speed="3.65" length="2.34" shape="1721.36,1322.89 1720.03,1323.43 1719.14,1323.31"/>
    </edge>
    <edge id=":1149723825_4" function="internal">
        <lane id=":1149723825_4_0" index="0" disallow="tram rail_urban rail rail_electric rail_fast ship" speed="3.65" length="2.34" shape="1719.14,1323.31 1718.70,1322.53 1718.72,1321.09"/>
    </edge>
    <edge id=":1149723825_2" function="internal">
        <lane id=":1149723825_2_0" index="0" disallow="tram rail_urban rail rail_electric rail_fast ship" speed="13.89" length="4.99" shape="1715.91,1325.21 1718.72,1321.09"/>
    </edge>
    <edge id=":1149723825_3" function="internal">
        <lane id=":1149723825_3_0" index="0" disallow="tram rail_urban rail rail_electric rail_fast ship" speed="3.65" length="2.34" shape="1715.91,1325.21 1717.24,1324.67 1718.13,1324.79"/>
    </edge>
    <edge id=":1149723825_5" function="internal">
        <lane id=":1149723825_5_0" index="0" disallow="tram rail_urban rail rail_electric rail_fast ship" speed="3.65" length="2.34" shape="1718.13,1324.79 1718.56,1325.57 1718.55,1327.02"/>
    </edge>
    <edge id=":1149723867_0" function="internal">
        <lane id=":1149723867_0_0" index="0" disallow="tram rail_urban rail rail_electric rail_fast ship" speed="8.33" length="4.87" shape="1714.73,1374.60 1710.80,1371.73"/>
    </edge>
    <edge id=":1149723867_1" function="internal">
        <lane id=":1149723867_1_0" index="0" disallow="tram rail_urban rail rail_electric rail_fast ship" speed="3.65" length="4.67" shape="1714.73,1374.60 1714.25,1373.24 1714.41,1372.36 1715.22,1371.96 1716.66,1372.05"/>
    </edge>
    <edge id=":1149723867_2" function="internal">
        <lane id=":1149723867_2_0" index="0" disallow="tram rail_urban rail rail_electric rail_fast ship" speed="8.33" length="4.96" shape="1712.66,1369.12 1716.66,1372.05"/>
    </edge>
    <edge id=":1149723867_3" function="internal">
        <lane id=":1149723867_3_0" index="0" disallow="tram rail_urban rail rail_electric rail_fast ship" speed="3.65" length="4.67" shape="1712.66,1369.12 1713.17,1370.47 1713.03,1371.35 1712.24,1371.77 1710.80,1371.73"/>
    </edge>
    <edge id=":1149723937_0" function="internal">
        <lane id=":1149723937_0_0" index="0" disallow="tram rail_urban rail rail_electric rail_fast ship" speed="8.33" length="4.61" shape="1794.23,1372.31 1791.80,1376.23"/>
    </edge>
    <edge id=":1149723937_1" function="internal">
        <lane id=":1149723937_1_0" index="0" disallow="tram rail_urban rail rail_electric rail_fast ship" speed="3.65" length="2.34" shape="1794.23,1372.31 1792.92,1372.92 1792.03,1372.85"/>
    </edge>
    <edge id=":1149723937_4" function="internal">
        <lane id=":1149723937_4_0" index="0" disallow="tram rail_urban rail rail_electric rail_fast ship" speed="3.65" length="2.34" shape="1792.03,1372.85 1791.56,1372.09 1791.49,1370.65"/>
    </edge>
    <edge id=":1149723937_2" function="internal">
        <lane id=":1149723937_2_0" index="0" disallow="tram rail_urban rail rail_electric rail_fast ship" speed="8.33" length="4.56" shape="1789.10,1374.52 1791.49,1370.65"/>
    </edge>
    <edge id=":1149723937_3" function="internal">
        <lane id=":1149723937_3_0" index="0" disallow="tram rail_urban rail rail_electric rail_fast ship" speed="3.65" length="2.34" shape="1789.10,1374.52 1790.41,1373.93 1791.30,1374.02"/>
    </edge>
    <edge id=":1149723937_5" function="internal">
        <lane id=":1149723937_5_0" index="0" disallow="tram rail_urban rail rail_electric rail_fast ship" speed="3.65" length="2.34" shape="1791.30,1374.02 1791.77,1374.79 1791.80,1376.23"/>
    </edge>
    <edge id=":1187859977_0" function="internal">
        <lane id=":1187859977_0_0" index="0" allow="rail rail_electric rail_fast" speed="44.44" length="0.30" shape="2244.92,936.24 2245.20,936.35"/>
    </edge>
    <edge id=":1187860088_0" function="internal">
        <lane id=":1187860088_0_0" index="0" allow="rail rail_electric rail_fast" speed="44.44" length="0.29" shape="2243.25,939.87 2242.98,939.75"/>
    </edge>
    <edge id=":1187860131_0" function="internal">
        <lane id=":1187860131_0_0" index="0" allow="rail rail_electric rail_fast" speed="44.44" length="0.30" shape="2230.87,930.26 2231.14,930.37"/>
    </edge>
    <edge id=":1187860142_0" function="internal">
        <lane id=":1187860142_0_0" index="0" allow="rail rail_electric rail_fast" speed="44.44" length="0.30" shape="2229.72,934.25 2229.44,934.13"/>
    </edge>
    <edge id=":1199293996_0" function="internal">
        <lane id=":1199293996_0_0" index="0" disallow="tram rail_urban rail rail_electric rail_fast ship" speed="8.33" length="4.17" shape="2237.10,1521.34 2236.79,1522.54 2236.64,1523.37 2236.58,1524.22 2236.52,1525.46"/>
    </edge>
    <edge id=":1199293996_1" function="internal">
        <lane id=":1199293996_1_0" index="0" disallow="tram rail_urban rail rail_electric rail_fast ship" speed="3.65" length="2.34" shape="2237.10,1521.34 2236.01,1522.28 2235.13,1522.46"/>
    </edge>
    <edge id=":1199293996_4" function="internal">
        <lane id=":1199293996_4_0" index="0" disallow="tram rail_urban rail rail_electric rail_fast ship" speed="3.65" length="2.34" shape="2235.13,1522.46 2234.46,1521.86 2234.01,1520.49"/>
    </edge>
    <edge id=":1199293996_2" function="internal">
        <lane id=":1199293996_2_0" index="0" disallow="tram rail_urban rail rail_electric rail_fast ship" speed="8.33" length="4.86" shape="2233.32,1525.29 2233.40,1523.85 2233.48,1522.86 2233.65,1521.89 2234.01,1520.49"/>
    </edge>
    <edge id=":1199293996_3" function="internal">
        <lane id=":1199293996_3_0" index="0" disallow="tram rail_urban rail rail_electric rail_fast ship" speed="3.65" length="2.34" shape="2233.32,1525.29 2234.19,1524.13 2235.01,1523.77"/>
    </edge>
    <edge id=":1199293996_5" function="internal">
        <lane id=":1199293996_5_0" index="0" disallow="tram rail_urban rail rail_electric rail_fast ship" speed="3.65" length="2.34" shape="2235.01,1523.77 2235.79,1524.22 2236.52,1525.46"/>
    </edge>
    <edge id=":1199294055_0" function="internal">
        <lane id=":1199294055_0_0" index="0" disallow="tram rail_urban rail rail_electric rail_fast ship" speed="8.33" length="5.92" shape="2150.48,1551.86 2144.56,1551.96"/>
    </edge>
    <edge id=":1199294055_1" function="internal">
        <lane id=":1199294055_1_0" index="0" disallow="tram rail_urban rail rail_electric rail_fast ship" speed="3.65" length="4.67" shape="2150.48,1551.86 2149.27,1551.08 2148.86,1550.29 2149.24,1549.48 2150.43,1548.66"/>
    </edge>
    <edge id=":1199294055_2" function="internal">
        <lane id=":1199294055_2_0" index="0" disallow="tram rail_urban rail rail_electric rail_fast ship" speed="8.33" length="5.89" shape="2144.54,1548.76 2150.43,1548.66"/>
    </edge>
    <edge id=":1199294055_3" function="internal">
        <lane id=":1199294055_3_0" index="0" disallow="tram rail_urban rail rail_electric rail_fast ship" speed="3.65" length="4.67" shape="2144.54,1548.76 2145.74,1549.55 2146.15,1550.34 2145.76,1551.15 2144.56,1551.96"/>
    </edge>
    <edge id=":1231400843_0" function="internal">
        <lane id=":1231400843_0_0" index="0" disallow="tram rail_urban rail rail_electric rail_fast ship" speed="13.89" length="0.72" shape="1649.39,674.50 1649.19,674.41 1649.06,674.35 1648.93,674.28 1648.75,674.17"/>
    </edge>
    <edge id=":1231400843_1" function="internal">
        <lane id=":1231400843_1_0" index="0" disallow="tram rail_urban rail rail_electric rail_fast ship" speed="13.89" length="0.24" shape="1650.44,671.45 1650.50,671.49 1650.55,671.51 1650.59,671.53 1650.65,671.56"/>
    </edge>
    <edge id=":1240422265_0" function="internal">
        <lane id=":1240422265_0_0" index="0" disallow="tram rail_urban rail rail_electric rail_fast ship" speed="8.33" length="5.03" shape="1937.02,1488.19 1936.36,1483.20"/>
    </edge>
    <edge id=":1240422265_1" function="internal">
        <lane id=":1240422265_1_0" index="0" disallow="tram rail_urban rail rail_electric rail_fast ship" speed="3.65" length="2.34" shape="1937.02,1488.19 1937.65,1486.89 1938.39,1486.39"/>
    </edge>
    <edge id=":1240422265_4" function="internal">
        <lane id=":1240422265_4_0" index="0" disallow="tram rail_urban rail rail_electric rail_fast ship" speed="3.65" length="2.34" shape="1938.39,1486.39 1939.24,1486.67 1940.19,1487.76"/>
    </edge>
    <edge id=":1240422265_2" function="internal">
        <lane id=":1240422265_2_0" index="0" disallow="tram rail_urban rail rail_electric rail_fast ship" speed="8.33" length="5.01" shape="1939.53,1482.79 1940.19,1487.76"/>
    </edge>
    <edge id=":1240422265_3" function="internal">
        <lane id=":1240422265_3_0" index="0" disallow="tram rail_urban rail rail_electric rail_fast ship" speed="3.65" length="2.34" shape="1939.53,1482.79 1938.89,1484.08 1938.15,1484.58"/>
    </edge>
    <edge id=":1240422265_5" function="internal">
        <lane id=":1240422265_5_0" index="0" disallow="tram rail_urban rail rail_electric rail_fast ship" speed="3.65" length="2.34" shape="1938.15,1484.58 1937.31,1484.28 1936.36,1483.20"/>
    </edge>
    <edge id=":1242675209_0" function="internal">
        <lane id=":1242675209_0_0" index="0" disallow="tram rail_urban rail rail_electric rail_fast ship" speed="8.33" length="3.70" shape="2281.16,1387.85 2278.19,1385.65"/>
    </edge>
    <edge id=":1242675209_1" function="internal">
        <lane id=":1242675209_1_0" index="0" disallow="tram rail_urban rail rail_electric rail_fast ship" speed="3.65" length="2.49" shape="2281.16,1387.85 2280.56,1386.54 2280.64,1385.65 2280.76,1385.57"/>
    </edge>
    <edge id=":1242675209_4" function="internal">
        <lane id=":1242675209_4_0" index="0" disallow="tram rail_urban rail rail_electric rail_fast ship" speed="3.65" length="2.19" shape="2280.76,1385.57 2281.40,1385.18 2282.84,1385.12"/>
    </edge>
    <edge id=":1242675209_2" function="internal">
        <lane id=":1242675209_2_0" index="0" disallow="tram rail_urban rail rail_electric rail_fast ship" speed="8.33" length="3.38" shape="2280.13,1383.10 2282.84,1385.12"/>
    </edge>
    <edge id=":1242675209_3" function="internal">
        <lane id=":1242675209_3_0" index="0" disallow="tram rail_urban rail rail_electric rail_fast ship" speed="3.65" length="2.34" shape="2280.13,1383.10 2280.60,1384.46 2280.43,1385.34"/>
    </edge>
    <edge id=":1242675209_5" function="internal">
        <lane id=":1242675209_5_0" index="0" disallow="tram rail_urban rail rail_electric rail_fast ship" speed="3.65" length="2.34" shape="2280.43,1385.34 2279.63,1385.74 2278.19,1385.65"/>
    </edge>
    <edge id=":1270528835_0" function="internal">
        <lane id=":1270528835_0_0" index="0" disallow="tram rail_urban rail rail_electric rail_fast ship" speed="8.33" length="5.19" shape="1813.40,1450.64 1809.28,1447.49"/>
    </edge>
    <edge id=":1270528835_1" function="internal">