<?xml version="1.0" encoding="UTF-8"?>

<!-- generated on Thu Nov 28 16:02:18 2019 by Eclipse SUMO netconvert Version 1.3.1
<configuration xmlns:xsi="http://www.w3.org/2001/XMLSchema-instance" xsi:noNamespaceSchemaLocation="http://sumo.dlr.de/xsd/netconvertConfiguration.xsd">

    <input>
        <osm-files value="672_road-network.osm"/>
    </input>

    <output>
        <output-file value="672_road-network.net.xml"/>
    </output>

    <projection>
        <proj.utm value="true"/>
    </projection>

</configuration>
-->

<net version="1.3" junctionCornerDetail="5" limitTurnSpeed="5.50" xmlns:xsi="http://www.w3.org/2001/XMLSchema-instance" xsi:noNamespaceSchemaLocation="http://sumo.dlr.de/xsd/net_file.xsd">

    <location netOffset="-704747.37,-5339098.21" convBoundary="0.00,0.00,1177.29,962.36" origBoundary="11.754057,48.172112,11.769953,48.180589" projParameter="+proj=utm +zone=32 +ellps=WGS84 +datum=WGS84 +units=m +no_defs"/>

    <type id="highway.bridleway" priority="1" numLanes="1" speed="2.78" allow="pedestrian" oneway="1" width="2.00"/>
    <type id="highway.bus_guideway" priority="1" numLanes="1" speed="27.78" allow="bus" oneway="1"/>
    <type id="highway.cycleway" priority="1" numLanes="1" speed="8.33" allow="bicycle" oneway="0" width="1.00"/>
    <type id="highway.footway" priority="1" numLanes="1" speed="2.78" allow="pedestrian" oneway="1" width="2.00"/>
    <type id="highway.ford" priority="1" numLanes="1" speed="2.78" allow="army" oneway="0"/>
    <type id="highway.living_street" priority="2" numLanes="1" speed="2.78" disallow="tram rail_urban rail rail_electric rail_fast ship" oneway="0"/>
    <type id="highway.motorway" priority="14" numLanes="2" speed="39.44" allow="private emergency authority army vip passenger hov taxi bus coach delivery truck trailer motorcycle evehicle custom1 custom2" oneway="1"/>
    <type id="highway.motorway_link" priority="9" numLanes="1" speed="22.22" allow="private emergency authority army vip passenger hov taxi bus coach delivery truck trailer motorcycle evehicle custom1 custom2" oneway="1"/>
    <type id="highway.path" priority="1" numLanes="1" speed="2.78" allow="pedestrian bicycle" oneway="1" width="2.00"/>
    <type id="highway.pedestrian" priority="1" numLanes="1" speed="2.78" allow="pedestrian" oneway="1" width="2.00"/>
    <type id="highway.primary" priority="12" numLanes="2" speed="27.78" disallow="tram rail_urban rail rail_electric rail_fast ship" oneway="0"/>
    <type id="highway.primary_link" priority="7" numLanes="1" speed="22.22" disallow="tram rail_urban rail rail_electric rail_fast ship" oneway="0"/>
    <type id="highway.raceway" priority="15" numLanes="2" speed="83.33" allow="vip" oneway="0"/>
    <type id="highway.residential" priority="3" numLanes="1" speed="13.89" disallow="tram rail_urban rail rail_electric rail_fast ship" oneway="0"/>
    <type id="highway.secondary" priority="11" numLanes="2" speed="27.78" disallow="tram rail_urban rail rail_electric rail_fast ship" oneway="0"/>
    <type id="highway.secondary_link" priority="6" numLanes="1" speed="22.22" disallow="tram rail_urban rail rail_electric rail_fast ship" oneway="0"/>
    <type id="highway.service" priority="1" numLanes="1" speed="5.56" allow="pedestrian delivery bicycle" oneway="0"/>
    <type id="highway.stairs" priority="1" numLanes="1" speed="1.39" allow="pedestrian" oneway="1" width="2.00"/>
    <type id="highway.step" priority="1" numLanes="1" speed="1.39" allow="pedestrian" oneway="1" width="2.00"/>
    <type id="highway.steps" priority="1" numLanes="1" speed="1.39" allow="pedestrian" oneway="1" width="2.00"/>
    <type id="highway.tertiary" priority="10" numLanes="1" speed="22.22" disallow="tram rail_urban rail rail_electric rail_fast ship" oneway="0"/>
    <type id="highway.tertiary_link" priority="5" numLanes="1" speed="22.22" disallow="tram rail_urban rail rail_electric rail_fast ship" oneway="0"/>
    <type id="highway.track" priority="1" numLanes="1" speed="5.56" disallow="tram rail_urban rail rail_electric rail_fast ship" oneway="0"/>
    <type id="highway.trunk" priority="13" numLanes="2" speed="27.78" disallow="pedestrian bicycle tram rail_urban rail rail_electric rail_fast ship" oneway="0"/>
    <type id="highway.trunk_link" priority="8" numLanes="1" speed="22.22" disallow="pedestrian bicycle tram rail_urban rail rail_electric rail_fast ship" oneway="0"/>
    <type id="highway.unclassified" priority="4" numLanes="1" speed="13.89" disallow="tram rail_urban rail rail_electric rail_fast ship" oneway="0"/>
    <type id="highway.unsurfaced" priority="1" numLanes="1" speed="8.33" disallow="tram rail_urban rail rail_electric rail_fast ship" oneway="0"/>
    <type id="railway.highspeed" priority="21" numLanes="1" speed="69.44" allow="rail_fast" oneway="1"/>
    <type id="railway.light_rail" priority="19" numLanes="1" speed="27.78" allow="rail_urban" oneway="1"/>
    <type id="railway.preserved" priority="16" numLanes="1" speed="27.78" allow="rail" oneway="1"/>
    <type id="railway.rail" priority="20" numLanes="1" speed="44.44" allow="rail" oneway="1"/>
    <type id="railway.subway" priority="18" numLanes="1" speed="27.78" allow="rail_urban" oneway="1"/>
    <type id="railway.tram" priority="17" numLanes="1" speed="13.89" allow="tram" oneway="1"/>

    <edge id=":1069160222_0" function="internal">
        <lane id=":1069160222_0_0" index="0" allow="pedestrian delivery bicycle" speed="5.56" length="3.91" shape="597.71,324.08 595.88,327.53"/>
    </edge>
    <edge id=":1069160222_1" function="internal">
        <lane id=":1069160222_1_0" index="0" allow="pedestrian delivery bicycle" speed="3.65" length="2.34" shape="597.71,324.08 596.46,324.79 595.56,324.78"/>
    </edge>
    <edge id=":1069160222_4" function="internal">
        <lane id=":1069160222_4_0" index="0" allow="pedestrian delivery bicycle" speed="3.65" length="2.34" shape="595.56,324.78 595.03,324.06 594.86,322.63"/>
    </edge>
    <edge id=":1069160222_2" function="internal">
        <lane id=":1069160222_2_0" index="0" allow="pedestrian delivery bicycle" speed="5.56" length="3.78" shape="593.09,325.97 594.86,322.63"/>
    </edge>
    <edge id=":1069160222_3" function="internal">
        <lane id=":1069160222_3_0" index="0" allow="pedestrian delivery bicycle" speed="3.65" length="2.34" shape="593.09,325.97 594.38,325.31 595.27,325.36"/>
    </edge>
    <edge id=":1069160222_5" function="internal">
        <lane id=":1069160222_5_0" index="0" allow="pedestrian delivery bicycle" speed="3.65" length="2.34" shape="595.27,325.36 595.77,326.10 595.88,327.53"/>
    </edge>
    <edge id=":1069160438_0" function="internal">
        <lane id=":1069160438_0_0" index="0" disallow="tram rail_urban rail rail_electric rail_fast ship" speed="8.33" length="9.42" shape="616.12,342.38 607.71,338.15"/>
    </edge>
    <edge id=":1069160438_1" function="internal">
        <lane id=":1069160438_1_0" index="0" allow="pedestrian delivery bicycle" speed="6.41" length="5.55" shape="616.12,342.38 613.86,340.96 612.48,339.41 612.25,338.64"/>
    </edge>
    <edge id=":1069160438_2" function="internal">
        <lane id=":1069160438_2_0" index="0" disallow="tram rail_urban rail rail_electric rail_fast ship" speed="3.65" length="2.34" shape="616.12,342.38 615.41,341.12 615.41,340.23"/>
    </edge>
    <edge id=":1069160438_9" function="internal">
        <lane id=":1069160438_9_0" index="0" allow="pedestrian delivery bicycle" speed="6.41" length="2.79" shape="612.25,338.64 611.97,337.73 612.34,335.93"/>
    </edge>
    <edge id=":1069160438_10" function="internal">
        <lane id=":1069160438_10_0" index="0" disallow="tram rail_urban rail rail_electric rail_fast ship" speed="3.65" length="2.34" shape="615.41,340.23 616.13,339.69 617.56,339.51"/>
    </edge>
    <edge id=":1069160438_3" function="internal">
        <lane id=":1069160438_3_0" index="0" disallow="tram rail_urban rail rail_electric rail_fast ship" speed="4.45" length="3.51" shape="615.30,337.15 615.28,337.68 615.65,338.25 616.41,338.86 617.56,339.51"/>
    </edge>
    <edge id=":1069160438_4" function="internal">
        <lane id=":1069160438_4_0" index="0" disallow="tram rail_urban rail rail_electric rail_fast ship" speed="6.29" length="8.73" shape="615.30,337.15 614.19,338.70 612.55,339.38 610.39,339.20 607.71,338.15"/>
    </edge>
    <edge id=":1069160438_5" function="internal">
        <lane id=":1069160438_5_0" index="0" allow="pedestrian delivery bicycle" speed="3.65" length="4.67" shape="615.30,337.15 614.11,337.95 613.21,338.02 612.63,337.34 612.34,335.93"/>
    </edge>
    <edge id=":1069160438_6" function="internal">
        <lane id=":1069160438_6_0" index="0" allow="pedestrian delivery bicycle" speed="4.30" length="3.50" shape="609.14,335.29 609.96,335.71 610.93,336.12 611.80,336.28 612.34,335.93"/>
    </edge>
    <edge id=":1069160438_7" function="internal">
        <lane id=":1069160438_7_0" index="0" disallow="tram rail_urban rail rail_electric rail_fast ship" speed="8.33" length="9.41" shape="609.14,335.29 617.56,339.51"/>
    </edge>
    <edge id=":1069160438_8" function="internal">
        <lane id=":1069160438_8_0" index="0" disallow="tram rail_urban rail rail_electric rail_fast ship" speed="3.65" length="2.34" shape="609.14,335.29 609.86,336.55 609.85,337.44"/>
    </edge>
    <edge id=":1069160438_11" function="internal">
        <lane id=":1069160438_11_0" index="0" disallow="tram rail_urban rail rail_electric rail_fast ship" speed="3.65" length="2.34" shape="609.85,337.44 609.14,337.98 607.71,338.15"/>
    </edge>
    <edge id=":1069160623_0" function="internal">
        <lane id=":1069160623_0_0" index="0" disallow="tram rail_urban rail rail_electric rail_fast ship" speed="8.33" length="9.54" shape="596.81,332.68 588.35,328.28"/>
    </edge>
    <edge id=":1069160623_1" function="internal">
        <lane id=":1069160623_1_0" index="0" allow="pedestrian delivery bicycle" speed="6.24" length="5.91" shape="596.81,332.68 594.36,331.16 592.91,329.56 592.68,328.72"/>
    </edge>
    <edge id=":1069160623_2" function="internal">
        <lane id=":1069160623_2_0" index="0" disallow="tram rail_urban rail rail_electric rail_fast ship" speed="3.65" length="2.34" shape="596.81,332.68 596.10,331.42 596.10,330.53"/>
    </edge>
    <edge id=":1069160623_9" function="internal">
        <lane id=":1069160623_9_0" index="0" allow="pedestrian delivery bicycle" speed="6.24" length="2.70" shape="592.68,328.72 592.45,327.89 592.99,326.14"/>
    </edge>
    <edge id=":1069160623_10" function="internal">
        <lane id=":1069160623_10_0" index="0" disallow="tram rail_urban rail rail_electric rail_fast ship" speed="3.65" length="2.34" shape="596.10,330.53 596.82,329.99 598.25,329.82"/>
    </edge>
    <edge id=":1069160623_3" function="internal">
        <lane id=":1069160623_3_0" index="0" disallow="tram rail_urban rail rail_electric rail_fast ship" speed="4.29" length="3.49" shape="595.78,327.71 595.83,328.34 596.49,328.92 597.42,329.42 598.25,329.82"/>
    </edge>
    <edge id=":1069160623_4" function="internal">
        <lane id=":1069160623_4_0" index="0" disallow="tram rail_urban rail rail_electric rail_fast ship" speed="6.35" length="8.34" shape="595.78,327.71 594.56,329.05 592.91,329.59 590.84,329.33 588.35,328.28"/>
    </edge>
    <edge id=":1069160623_5" function="internal">
        <lane id=":1069160623_5_0" index="0" allow="pedestrian delivery bicycle" speed="3.65" length="4.67" shape="595.78,327.71 594.50,328.36 593.60,328.32 593.10,327.58 592.99,326.14"/>
    </edge>
    <edge id=":1069160623_6" function="internal">
        <lane id=":1069160623_6_0" index="0" allow="pedestrian delivery bicycle" speed="4.38" length="3.43" shape="589.86,325.46 590.65,325.89 591.57,326.30 592.41,326.47 592.99,326.14"/>
    </edge>
    <edge id=":1069160623_7" function="internal">
        <lane id=":1069160623_7_0" index="0" disallow="tram rail_urban rail rail_electric rail_fast ship" speed="8.33" length="9.45" shape="589.86,325.46 598.25,329.82"/>
    </edge>
    <edge id=":1069160623_8" function="internal">
        <lane id=":1069160623_8_0" index="0" disallow="tram rail_urban rail rail_electric rail_fast ship" speed="3.65" length="2.34" shape="589.86,325.46 590.54,326.73 590.51,327.63"/>
    </edge>
    <edge id=":1069160623_11" function="internal">
        <lane id=":1069160623_11_0" index="0" disallow="tram rail_urban rail rail_electric rail_fast ship" speed="3.65" length="2.34" shape="590.51,327.63 589.78,328.14 588.35,328.28"/>
    </edge>
    <edge id=":1069160639_0" function="internal">
        <lane id=":1069160639_0_0" index="0" allow="pedestrian delivery bicycle" speed="5.56" length="3.76" shape="616.94,333.54 615.38,336.96"/>
    </edge>
    <edge id=":1069160639_1" function="internal">
        <lane id=":1069160639_1_0" index="0" allow="pedestrian delivery bicycle" speed="3.65" length="2.34" shape="616.94,333.54 615.70,334.29 614.81,334.32"/>
    </edge>
    <edge id=":1069160639_4" function="internal">
        <lane id=":1069160639_4_0" index="0" allow="pedestrian delivery bicycle" speed="3.65" length="2.34" shape="614.81,334.32 614.25,333.62 614.03,332.19"/>
    </edge>
    <edge id=":1069160639_2" function="internal">
        <lane id=":1069160639_2_0" index="0" allow="pedestrian delivery bicycle" speed="5.56" length="3.90" shape="612.42,335.74 614.03,332.19"/>
    </edge>
    <edge id=":1069160639_3" function="internal">
        <lane id=":1069160639_3_0" index="0" allow="pedestrian delivery bicycle" speed="3.65" length="2.34" shape="612.42,335.74 613.62,334.94 614.51,334.87"/>
    </edge>
    <edge id=":1069160639_5" function="internal">
        <lane id=":1069160639_5_0" index="0" allow="pedestrian delivery bicycle" speed="3.65" length="2.34" shape="614.51,334.87 615.10,335.55 615.38,336.96"/>
    </edge>
    <edge id=":1215749248_0" function="internal">
        <lane id=":1215749248_0_0" index="0" allow="pedestrian delivery bicycle" speed="5.56" length="4.96" shape="608.29,303.27 606.03,307.69"/>
    </edge>
    <edge id=":1215749248_1" function="internal">
        <lane id=":1215749248_1_0" index="0" allow="pedestrian delivery bicycle" speed="3.65" length="2.34" shape="608.29,303.27 607.03,303.97 606.13,303.96"/>
    </edge>
    <edge id=":1215749248_4" function="internal">
        <lane id=":1215749248_4_0" index="0" allow="pedestrian delivery bicycle" speed="3.65" length="2.34" shape="606.13,303.96 605.61,303.23 605.45,301.80"/>
    </edge>
    <edge id=":1215749248_2" function="internal">
        <lane id=":1215749248_2_0" index="0" allow="pedestrian delivery bicycle" speed="5.56" length="4.99" shape="603.17,306.24 605.45,301.80"/>
    </edge>
    <edge id=":1215749248_3" function="internal">
        <lane id=":1215749248_3_0" index="0" allow="pedestrian delivery bicycle" speed="3.65" length="2.34" shape="603.17,306.24 604.43,305.53 605.32,305.54"/>
    </edge>
    <edge id=":1215749248_5" function="internal">
        <lane id=":1215749248_5_0" index="0" allow="pedestrian delivery bicycle" speed="3.65" length="2.34" shape="605.32,305.54 605.86,306.26 606.03,307.69"/>
    </edge>
    <edge id=":125405655_0" function="internal">
        <lane id=":125405655_0_0" index="0" allow="pedestrian delivery bicycle" speed="5.07" length="5.04" shape="736.50,403.25 735.21,402.81 734.08,402.90 733.11,403.51 732.30,404.64"/>
    </edge>
    <edge id=":125405655_1" function="internal">
        <lane id=":125405655_1_0" index="0" disallow="tram rail_urban rail rail_electric rail_fast ship" speed="8.33" length="9.41" shape="736.50,403.25 728.11,398.99"/>
    </edge>
    <edge id=":125405655_2" function="internal">
        <lane id=":125405655_2_0" index="0" disallow="tram rail_urban rail rail_electric rail_fast ship" speed="3.65" length="2.34" shape="736.50,403.25 735.80,401.99 735.81,401.10"/>
    </edge>
    <edge id=":125405655_9" function="internal">
        <lane id=":125405655_9_0" index="0" disallow="tram rail_urban rail rail_electric rail_fast ship" speed="3.65" length="2.34" shape="735.81,401.10 736.53,400.57 737.96,400.40"/>
    </edge>
    <edge id=":125405655_3" function="internal">
        <lane id=":125405655_3_0" index="0" disallow="tram rail_urban rail rail_electric rail_fast ship" speed="8.33" length="9.42" shape="729.56,396.13 737.96,400.40"/>
    </edge>
    <edge id=":125405655_4" function="internal">
        <lane id=":125405655_4_0" index="0" allow="pedestrian delivery bicycle" speed="6.85" length="5.11" shape="729.56,396.13 731.86,397.74 733.08,399.69"/>
    </edge>
    <edge id=":125405655_5" function="internal">
        <lane id=":125405655_5_0" index="0" disallow="tram rail_urban rail rail_electric rail_fast ship" speed="3.65" length="2.34" shape="729.56,396.13 730.27,397.39 730.26,398.28"/>
    </edge>
    <edge id=":125405655_10" function="internal">
        <lane id=":125405655_10_0" index="0" allow="pedestrian delivery bicycle" speed="6.85" length="5.11" shape="733.08,399.69 733.23,401.99 732.30,404.64"/>
    </edge>
    <edge id=":125405655_11" function="internal">
        <lane id=":125405655_11_0" index="0" disallow="tram rail_urban rail rail_electric rail_fast ship" speed="3.65" length="2.34" shape="730.26,398.28 729.55,398.82 728.11,398.99"/>
    </edge>
    <edge id=":125405655_6" function="internal">
        <lane id=":125405655_6_0" index="0" disallow="tram rail_urban rail rail_electric rail_fast ship" speed="5.03" length="5.01" shape="729.46,403.16 729.92,401.86 729.84,400.74 729.24,399.78 728.11,398.99"/>
    </edge>
    <edge id=":125405655_7" function="internal">
        <lane id=":125405655_7_0" index="0" disallow="tram rail_urban rail rail_electric rail_fast ship" speed="6.88" length="10.18" shape="729.46,403.16 731.09,400.89 733.05,399.67 735.34,399.50 737.96,400.40"/>
    </edge>
    <edge id=":125405655_8" function="internal">
        <lane id=":125405655_8_0" index="0" allow="pedestrian delivery bicycle" speed="3.65" length="4.67" shape="729.46,403.16 730.72,402.47 731.62,402.48 732.14,403.21 732.30,404.64"/>
    </edge>
    <edge id=":125405694_0" function="internal">
        <lane id=":125405694_0_0" index="0" allow="pedestrian delivery bicycle" speed="5.07" length="5.03" shape="761.52,416.04 760.22,415.59 759.09,415.68 758.12,416.28 757.31,417.42"/>
    </edge>
    <edge id=":125405694_1" function="internal">
        <lane id=":125405694_1_0" index="0" disallow="tram rail_urban rail rail_electric rail_fast ship" speed="8.33" length="9.40" shape="761.52,416.04 753.15,411.76"/>
    </edge>
    <edge id=":125405694_2" function="internal">
        <lane id=":125405694_2_0" index="0" disallow="tram rail_urban rail rail_electric rail_fast ship" speed="3.65" length="2.34" shape="761.52,416.04 760.81,414.78 760.82,413.88"/>
    </edge>
    <edge id=":125405694_9" function="internal">
        <lane id=":125405694_9_0" index="0" disallow="tram rail_urban rail rail_electric rail_fast ship" speed="3.65" length="2.34" shape="760.82,413.88 761.54,413.35 762.97,413.19"/>
    </edge>
    <edge id=":125405694_3" function="internal">
        <lane id=":125405694_3_0" index="0" disallow="tram rail_urban rail rail_electric rail_fast ship" speed="8.33" length="9.40" shape="754.60,408.91 762.97,413.19"/>
    </edge>
    <edge id=":125405694_4" function="internal">
        <lane id=":125405694_4_0" index="0" allow="pedestrian delivery bicycle" speed="6.85" length="5.10" shape="754.60,408.91 756.89,410.52 758.10,412.48"/>
    </edge>
    <edge id=":125405694_5" function="internal">
        <lane id=":125405694_5_0" index="0" disallow="tram rail_urban rail rail_electric rail_fast ship" speed="3.65" length="2.34" shape="754.60,408.91 755.31,410.16 755.30,411.06"/>
    </edge>
    <edge id=":125405694_10" function="internal">
        <lane id=":125405694_10_0" index="0" allow="pedestrian delivery bicycle" speed="6.85" length="5.10" shape="758.10,412.48 758.24,414.77 757.31,417.42"/>
    </edge>
    <edge id=":125405694_11" function="internal">
        <lane id=":125405694_11_0" index="0" disallow="tram rail_urban rail rail_electric rail_fast ship" speed="3.65" length="2.34" shape="755.30,411.06 754.58,411.59 753.15,411.76"/>
    </edge>
    <edge id=":125405694_6" function="internal">
        <lane id=":125405694_6_0" index="0" disallow="tram rail_urban rail rail_electric rail_fast ship" speed="5.03" length="5.01" shape="754.48,415.93 754.93,414.64 754.86,413.51 754.27,412.55 753.15,411.76"/>
    </edge>
    <edge id=":125405694_7" function="internal">
        <lane id=":125405694_7_0" index="0" disallow="tram rail_urban rail rail_electric rail_fast ship" speed="6.88" length="10.16" shape="754.48,415.93 756.10,413.66 758.06,412.45 760.35,412.29 762.97,413.19"/>
    </edge>
    <edge id=":125405694_8" function="internal">
        <lane id=":125405694_8_0" index="0" allow="pedestrian delivery bicycle" speed="3.65" length="4.67" shape="754.48,415.93 755.74,415.24 756.64,415.26 757.16,415.98 757.31,417.42"/>
    </edge>
    <edge id=":1564426_0" function="internal">
        <lane id=":1564426_0_0" index="0" disallow="tram rail_urban rail rail_electric rail_fast ship" speed="6.38" length="9.04" shape="671.75,709.90 669.39,709.09 667.37,709.26 665.71,710.41 664.39,712.53"/>
    </edge>
    <edge id=":1564426_1" function="internal">
        <lane id=":1564426_1_0" index="0" allow="pedestrian delivery bicycle" speed="9.72" length="16.82" shape="671.75,709.90 656.93,701.95"/>
    </edge>
    <edge id=":1564426_2" function="internal">
        <lane id=":1564426_2_0" index="0" disallow="tram rail_urban rail rail_electric rail_fast ship" speed="9.11" length="17.78" shape="671.75,709.90 667.27,706.95 664.60,703.60 663.75,699.83 664.72,695.67"/>
    </edge>
    <edge id=":1564426_3" function="internal">
        <lane id=":1564426_3_0" index="0" disallow="tram rail_urban rail rail_electric rail_fast ship" speed="3.65" length="4.67" shape="671.75,709.90 671.04,708.64 671.05,707.75 671.77,707.21 673.20,707.05"/>
    </edge>
    <edge id=":1564426_4" function="internal">
        <lane id=":1564426_4_0" index="0" disallow="tram rail_urban rail rail_electric rail_fast ship" speed="7.09" length="10.37" shape="670.60,698.19 669.77,701.06 669.93,703.49 671.07,705.49 673.20,707.05"/>
    </edge>
    <edge id=":1564426_5" function="internal">
        <lane id=":1564426_5_0" index="0" disallow="tram rail_urban rail rail_electric rail_fast ship" speed="19.44" length="15.62" shape="670.60,698.19 664.39,712.53"/>
        <lane id=":1564426_5_1" index="1" disallow="tram rail_urban rail rail_electric rail_fast ship" speed="19.44" length="15.62" shape="667.66,696.93 661.46,711.25"/>
    </edge>
    <edge id=":1564426_7" function="internal">
        <lane id=":1564426_7_0" index="0" allow="pedestrian delivery bicycle" speed="7.59" length="6.74" shape="667.66,696.93 665.54,700.63 663.63,702.21"/>
    </edge>
    <edge id=":1564426_8" function="internal">
        <lane id=":1564426_8_0" index="0" disallow="tram rail_urban rail rail_electric rail_fast ship" speed="3.65" length="2.34" shape="667.66,696.93 666.45,697.71 665.56,697.77"/>
    </edge>
    <edge id=":1564426_18" function="internal">
        <lane id=":1564426_18_0" index="0" allow="pedestrian delivery bicycle" speed="7.59" length="7.12" shape="663.63,702.21 663.04,702.70 660.17,703.14 656.93,701.95"/>
    </edge>
    <edge id=":1564426_19" function="internal">
        <lane id=":1564426_19_0" index="0" disallow="tram rail_urban rail rail_electric rail_fast ship" speed="3.65" length="2.34" shape="665.56,697.77 664.98,697.08 664.72,695.67"/>
    </edge>
    <edge id=":1564426_9" function="internal">
        <lane id=":1564426_9_0" index="0" disallow="tram rail_urban rail rail_electric rail_fast ship" speed="5.25" length="6.02" shape="658.50,699.16 659.07,699.08 659.81,698.26 660.72,696.70 661.78,694.40"/>
    </edge>
    <edge id=":1564426_10" function="internal">
        <lane id=":1564426_10_0" index="0" disallow="tram rail_urban rail rail_electric rail_fast ship" speed="9.72" length="16.68" shape="658.50,699.16 673.20,707.05"/>
    </edge>
    <edge id=":1564426_11" function="internal">
        <lane id=":1564426_11_0" index="0" disallow="tram rail_urban rail rail_electric rail_fast ship" speed="8.26" length="13.83" shape="658.50,699.16 661.15,701.36 662.52,704.10 662.63,707.40 661.46,711.25"/>
    </edge>
    <edge id=":1564426_12" function="internal">
        <lane id=":1564426_12_0" index="0" allow="pedestrian delivery bicycle" speed="3.65" length="4.67" shape="658.50,699.16 659.15,700.45 659.11,701.34 658.37,701.84 656.93,701.95"/>
    </edge>
    <edge id=":1564426_13" function="internal">
        <lane id=":1564426_13_0" index="0" allow="pedestrian delivery bicycle" speed="6.10" length="7.13" shape="655.60,708.69 656.66,706.02 657.24,704.01 657.33,702.66 656.93,701.95"/>
    </edge>
    <edge id=":1564426_14" function="internal">
        <lane id=":1564426_14_0" index="0" disallow="tram rail_urban rail rail_electric rail_fast ship" speed="19.44" length="15.58" shape="655.60,708.69 661.78,694.40"/>
        <lane id=":1564426_14_1" index="1" disallow="tram rail_urban rail rail_electric rail_fast ship" speed="19.44" length="15.58" shape="658.53,709.97 664.72,695.67"/>
    </edge>
    <edge id=":1564426_16" function="internal">
        <lane id=":1564426_16_0" index="0" disallow="tram rail_urban rail rail_electric rail_fast ship" speed="8.57" length="5.36" shape="658.53,709.97 660.84,706.60 661.98,706.03"/>
    </edge>
    <edge id=":1564426_17" function="internal">
        <lane id=":1564426_17_0" index="0" disallow="tram rail_urban rail rail_electric rail_fast ship" speed="3.65" length="2.34" shape="658.53,709.97 659.74,709.19 660.63,709.14"/>
    </edge>
    <edge id=":1564426_20" function="internal">
        <lane id=":1564426_20_0" index="0" disallow="tram rail_urban rail rail_electric rail_fast ship" speed="8.57" length="11.82" shape="661.98,706.03 664.05,704.99 668.18,705.14 673.20,707.05"/>
    </edge>
    <edge id=":1564426_21" function="internal">
        <lane id=":1564426_21_0" index="0" disallow="tram rail_urban rail rail_electric rail_fast ship" speed="3.65" length="2.34" shape="660.63,709.14 661.21,709.83 661.46,711.25"/>
    </edge>
    <edge id=":1673194922_0" function="internal">
        <lane id=":1673194922_0_0" index="0" allow="pedestrian delivery bicycle" speed="5.56" length="9.45" shape="668.15,440.89 659.70,436.65"/>
    </edge>
    <edge id=":1673194922_1" function="internal">
        <lane id=":1673194922_1_0" index="0" allow="pedestrian delivery bicycle" speed="5.56" length="10.20" shape="668.15,440.89 665.90,439.33 664.67,437.39 664.47,435.06 665.29,432.35"/>
    </edge>
    <edge id=":1673194922_2" function="internal">
        <lane id=":1673194922_2_0" index="0" allow="pedestrian delivery bicycle" speed="3.65" length="4.67" shape="668.15,440.89 667.43,439.64 667.42,438.74 668.14,438.20 669.57,438.02"/>
    </edge>
    <edge id=":1673194922_3" function="internal">
        <lane id=":1673194922_3_0" index="0" allow="pedestrian delivery bicycle" speed="5.16" length="5.16" shape="668.20,433.68 667.77,435.07 667.86,436.26 668.46,437.24 669.57,438.02"/>
    </edge>
    <edge id=":1673194922_4" function="internal">
        <lane id=":1673194922_4_0" index="0" allow="pedestrian delivery bicycle" speed="5.56" length="10.37" shape="668.20,433.68 666.65,436.08 664.72,437.38 662.40,437.57 659.70,436.65"/>
    </edge>
    <edge id=":1673194922_5" function="internal">
        <lane id=":1673194922_5_0" index="0" allow="pedestrian delivery bicycle" speed="3.65" length="4.67" shape="668.20,433.68 666.97,434.44 666.08,434.47 665.52,433.77 665.29,432.35"/>
    </edge>
    <edge id=":1673194922_6" function="internal">
        <lane id=":1673194922_6_0" index="0" allow="pedestrian delivery bicycle" speed="5.00" length="5.05" shape="661.15,433.79 662.46,434.24 663.59,434.15 664.53,433.52 665.29,432.35"/>
    </edge>
    <edge id=":1673194922_7" function="internal">
        <lane id=":1673194922_7_0" index="0" allow="pedestrian delivery bicycle" speed="5.56" length="9.42" shape="661.15,433.79 669.57,438.02"/>
    </edge>
    <edge id=":1673194922_8" function="internal">
        <lane id=":1673194922_8_0" index="0" allow="pedestrian delivery bicycle" speed="3.65" length="4.67" shape="661.15,433.79 661.85,435.05 661.85,435.95 661.13,436.48 659.70,436.65"/>
    </edge>
    <edge id=":1673194924_0" function="internal">
        <lane id=":1673194924_0_0" index="0" allow="pedestrian delivery bicycle" speed="4.98" length="5.07" shape="695.26,382.10 693.94,381.63 692.81,381.71 691.86,382.34 691.11,383.52"/>
    </edge>
    <edge id=":1673194924_1" function="internal">
        <lane id=":1673194924_1_0" index="0" disallow="tram rail_urban rail rail_electric rail_fast ship" speed="8.33" length="9.44" shape="695.26,382.10 686.87,377.78"/>
    </edge>
    <edge id=":1673194924_2" function="internal">
        <lane id=":1673194924_2_0" index="0" disallow="tram rail_urban rail rail_electric rail_fast ship" speed="3.65" length="2.34" shape="695.26,382.10 694.57,380.84 694.59,379.94"/>
    </edge>
    <edge id=":1673194924_9" function="internal">
        <lane id=":1673194924_9_0" index="0" disallow="tram rail_urban rail rail_electric rail_fast ship" speed="3.65" length="2.34" shape="694.59,379.94 695.32,379.42 696.76,379.28"/>
    </edge>
    <edge id=":1673194924_3" function="internal">
        <lane id=":1673194924_3_0" index="0" disallow="tram rail_urban rail rail_electric rail_fast ship" speed="8.33" length="9.52" shape="688.30,374.92 696.76,379.28"/>
    </edge>
    <edge id=":1673194924_4" function="internal">
        <lane id=":1673194924_4_0" index="0" allow="pedestrian delivery bicycle" speed="6.95" length="5.03" shape="688.30,374.92 690.53,376.48 691.74,378.44"/>
    </edge>
    <edge id=":1673194924_5" function="internal">