<?xml version="1.0" encoding="UTF-8"?>

<!-- generated on Sat Nov 30 00:51:00 2019 by Eclipse SUMO netconvert Version 1.3.1
<configuration xmlns:xsi="http://www.w3.org/2001/XMLSchema-instance" xsi:noNamespaceSchemaLocation="http://sumo.dlr.de/xsd/netconvertConfiguration.xsd">

    <input>
        <osm-files value="671_road-network.osm"/>
    </input>

    <output>
        <output-file value="../net/road-network_671.net.xml"/>
    </output>

    <projection>
        <proj.utm value="true"/>
    </projection>

</configuration>
-->

<net version="1.3" junctionCornerDetail="5" limitTurnSpeed="5.50" xmlns:xsi="http://www.w3.org/2001/XMLSchema-instance" xsi:noNamespaceSchemaLocation="http://sumo.dlr.de/xsd/net_file.xsd">

    <location netOffset="-703213.39,-5338269.89" convBoundary="0.00,0.00,1435.25,1326.63" origBoundary="11.733496,48.164757,11.752804,48.176854" projParameter="+proj=utm +zone=32 +ellps=WGS84 +datum=WGS84 +units=m +no_defs"/>

    <type id="highway.bridleway" priority="1" numLanes="1" speed="2.78" allow="pedestrian" oneway="1" width="2.00"/>
    <type id="highway.bus_guideway" priority="1" numLanes="1" speed="27.78" allow="bus" oneway="1"/>
    <type id="highway.cycleway" priority="1" numLanes="1" speed="8.33" allow="bicycle" oneway="0" width="1.00"/>
    <type id="highway.footway" priority="1" numLanes="1" speed="2.78" allow="pedestrian" oneway="1" width="2.00"/>
    <type id="highway.ford" priority="1" numLanes="1" speed="2.78" allow="army" oneway="0"/>
    <type id="highway.living_street" priority="2" numLanes="1" speed="2.78" disallow="tram rail_urban rail rail_electric rail_fast ship" oneway="0"/>
    <type id="highway.motorway" priority="14" numLanes="2" speed="39.44" allow="private emergency authority army vip passenger hov taxi bus coach delivery truck trailer motorcycle evehicle custom1 custom2" oneway="1"/>
    <type id="highway.motorway_link" priority="9" numLanes="1" speed="22.22" allow="private emergency authority army vip passenger hov taxi bus coach delivery truck trailer motorcycle evehicle custom1 custom2" oneway="1"/>
    <type id="highway.path" priority="1" numLanes="1" speed="2.78" allow="pedestrian bicycle" oneway="1" width="2.00"/>
    <type id="highway.pedestrian" priority="1" numLanes="1" speed="2.78" allow="pedestrian" oneway="1" width="2.00"/>
    <type id="highway.primary" priority="12" numLanes="2" speed="27.78" disallow="tram rail_urban rail rail_electric rail_fast ship" oneway="0"/>
    <type id="highway.primary_link" priority="7" numLanes="1" speed="22.22" disallow="tram rail_urban rail rail_electric rail_fast ship" oneway="0"/>
    <type id="highway.raceway" priority="15" numLanes="2" speed="83.33" allow="vip" oneway="0"/>
    <type id="highway.residential" priority="3" numLanes="1" speed="13.89" disallow="tram rail_urban rail rail_electric rail_fast ship" oneway="0"/>
    <type id="highway.secondary" priority="11" numLanes="2" speed="27.78" disallow="tram rail_urban rail rail_electric rail_fast ship" oneway="0"/>
    <type id="highway.secondary_link" priority="6" numLanes="1" speed="22.22" disallow="tram rail_urban rail rail_electric rail_fast ship" oneway="0"/>
    <type id="highway.service" priority="1" numLanes="1" speed="5.56" allow="pedestrian delivery bicycle" oneway="0"/>
    <type id="highway.stairs" priority="1" numLanes="1" speed="1.39" allow="pedestrian" oneway="1" width="2.00"/>
    <type id="highway.step" priority="1" numLanes="1" speed="1.39" allow="pedestrian" oneway="1" width="2.00"/>
    <type id="highway.steps" priority="1" numLanes="1" speed="1.39" allow="pedestrian" oneway="1" width="2.00"/>
    <type id="highway.tertiary" priority="10" numLanes="1" speed="22.22" disallow="tram rail_urban rail rail_electric rail_fast ship" oneway="0"/>
    <type id="highway.tertiary_link" priority="5" numLanes="1" speed="22.22" disallow="tram rail_urban rail rail_electric rail_fast ship" oneway="0"/>
    <type id="highway.track" priority="1" numLanes="1" speed="5.56" disallow="tram rail_urban rail rail_electric rail_fast ship" oneway="0"/>
    <type id="highway.trunk" priority="13" numLanes="2" speed="27.78" disallow="pedestrian bicycle tram rail_urban rail rail_electric rail_fast ship" oneway="0"/>
    <type id="highway.trunk_link" priority="8" numLanes="1" speed="22.22" disallow="pedestrian bicycle tram rail_urban rail rail_electric rail_fast ship" oneway="0"/>
    <type id="highway.unclassified" priority="4" numLanes="1" speed="13.89" disallow="tram rail_urban rail rail_electric rail_fast ship" oneway="0"/>
    <type id="highway.unsurfaced" priority="1" numLanes="1" speed="8.33" disallow="tram rail_urban rail rail_electric rail_fast ship" oneway="0"/>
    <type id="railway.highspeed" priority="21" numLanes="1" speed="69.44" allow="rail_fast" oneway="1"/>
    <type id="railway.light_rail" priority="19" numLanes="1" speed="27.78" allow="rail_urban" oneway="1"/>
    <type id="railway.preserved" priority="16" numLanes="1" speed="27.78" allow="rail" oneway="1"/>
    <type id="railway.rail" priority="20" numLanes="1" speed="44.44" allow="rail" oneway="1"/>
    <type id="railway.subway" priority="18" numLanes="1" speed="27.78" allow="rail_urban" oneway="1"/>
    <type id="railway.tram" priority="17" numLanes="1" speed="13.89" allow="tram" oneway="1"/>

    <edge id=":1059911353_0" function="internal">
        <lane id=":1059911353_0_0" index="0" disallow="tram rail_urban rail rail_electric rail_fast ship" speed="12.98" length="12.52" shape="847.86,606.98 851.64,606.58 854.31,605.71 856.55,604.27 859.02,602.15"/>
    </edge>
    <edge id=":1059911353_1" function="internal">
        <lane id=":1059911353_1_0" index="0" disallow="tram rail_urban rail rail_electric rail_fast ship" speed="13.89" length="12.50" shape="847.86,606.98 851.61,606.93 854.18,607.17 856.72,607.69 860.41,608.46"/>
        <lane id=":1059911353_1_1" index="1" disallow="tram rail_urban rail rail_electric rail_fast ship" speed="13.89" length="12.50" shape="848.00,610.18 851.64,610.14 854.12,610.39 856.59,610.91 860.17,611.67"/>
    </edge>
    <edge id=":1231071045_0" function="internal">
        <lane id=":1231071045_0_0" index="0" disallow="tram rail_urban rail rail_electric rail_fast ship" speed="5.56" length="0.35" shape="201.89,512.38 201.89,512.03"/>
    </edge>
    <edge id=":1231071045_1" function="internal">
        <lane id=":1231071045_1_0" index="0" disallow="tram rail_urban rail rail_electric rail_fast ship" speed="5.56" length="0.12" shape="205.09,512.21 205.08,512.32"/>
    </edge>
    <edge id=":1231071063_0" function="internal">
        <lane id=":1231071063_0_0" index="0" disallow="tram rail_urban rail rail_electric rail_fast ship" speed="5.56" length="14.89" shape="214.55,658.95 212.74,662.21 210.84,665.41 208.87,668.56 206.83,671.68"/>
    </edge>
    <edge id=":1231071063_1" function="internal">
        <lane id=":1231071063_1_0" index="0" disallow="tram rail_urban rail rail_electric rail_fast ship" speed="5.56" length="14.57" shape="214.55,658.95 212.26,661.98 209.42,663.59 206.04,663.78 202.11,662.55"/>
    </edge>
    <edge id=":1231071063_2" function="internal">
        <lane id=":1231071063_2_0" index="0" disallow="tram rail_urban rail rail_electric rail_fast ship" speed="3.65" length="4.67" shape="214.55,658.95 213.28,659.63 212.39,659.60 211.87,658.87 211.74,657.43"/>
    </edge>
    <edge id=":1231071063_3" function="internal">
        <lane id=":1231071063_3_0" index="0" disallow="tram rail_urban rail rail_electric rail_fast ship" speed="5.56" length="9.64" shape="203.46,659.64 206.10,660.49 208.36,660.40 210.24,659.38 211.74,657.43"/>
    </edge>
    <edge id=":1231071063_4" function="internal">
        <lane id=":1231071063_4_0" index="0" disallow="tram rail_urban rail rail_electric rail_fast ship" speed="5.56" length="14.82" shape="203.46,659.64 206.94,661.91 208.66,664.68 208.62,667.93 206.83,671.68"/>
    </edge>
    <edge id=":1231071063_5" function="internal">
        <lane id=":1231071063_5_0" index="0" disallow="tram rail_urban rail rail_electric rail_fast ship" speed="3.65" length="4.67" shape="203.46,659.64 204.21,660.87 204.24,661.77 203.54,662.33 202.11,662.55"/>
    </edge>
    <edge id=":1231071063_6" function="internal">
        <lane id=":1231071063_6_0" index="0" disallow="tram rail_urban rail rail_electric rail_fast ship" speed="5.56" length="9.05" shape="204.17,669.89 205.27,667.61 205.29,665.62 204.24,663.93 202.11,662.55"/>
    </edge>
    <edge id=":1231071063_7" function="internal">
        <lane id=":1231071063_7_0" index="0" disallow="tram rail_urban rail rail_electric rail_fast ship" speed="5.56" length="14.59" shape="204.17,669.89 206.19,666.81 208.11,663.75 209.95,660.65 211.74,657.43"/>
    </edge>
    <edge id=":1231071063_8" function="internal">
        <lane id=":1231071063_8_0" index="0" disallow="tram rail_urban rail rail_electric rail_fast ship" speed="3.65" length="4.67" shape="204.17,669.89 205.50,669.34 206.39,669.46 206.83,670.23 206.83,671.68"/>
    </edge>
    <edge id=":1231071104_0" function="internal">
        <lane id=":1231071104_0_0" index="0" disallow="tram rail_urban rail rail_electric rail_fast ship" speed="5.56" length="0.37" shape="217.22,451.43 217.16,451.53 217.12,451.59 217.09,451.66 217.05,451.77"/>
    </edge>
    <edge id=":1231071104_1" function="internal">
        <lane id=":1231071104_1_0" index="0" disallow="tram rail_urban rail rail_electric rail_fast ship" speed="5.56" length="1.12" shape="214.04,450.67 214.16,450.36 214.25,450.15 214.36,449.96 214.54,449.68"/>
    </edge>
    <edge id=":1231071128_0" function="internal">
        <lane id=":1231071128_0_0" index="0" disallow="tram rail_urban rail rail_electric rail_fast ship" speed="3.65" length="4.67" shape="0.26,929.93 -1.06,929.34 -1.58,928.61 -1.31,927.76 -0.26,926.78"/>
    </edge>
    <edge id=":1231071174_0" function="internal">
        <lane id=":1231071174_0_0" index="0" disallow="tram rail_urban rail rail_electric rail_fast ship" speed="3.65" length="4.67" shape="247.97,404.09 249.37,403.73 250.23,403.96 250.56,404.80 250.36,406.22"/>
    </edge>
    <edge id=":125070679_0" function="internal">
        <lane id=":125070679_0_0" index="0" allow="private emergency authority army vip passenger hov taxi bus coach delivery truck trailer motorcycle evehicle custom1 custom2" speed="22.22" length="12.41" shape="215.72,680.98 217.86,677.83 218.96,675.26 219.83,672.78 221.27,669.95"/>
    </edge>
    <edge id=":125070679_1" function="internal">
        <lane id=":125070679_1_0" index="0" allow="private emergency authority army vip passenger hov taxi bus coach delivery truck trailer motorcycle evehicle custom1 custom2" speed="22.22" length="13.21" shape="218.21,683.00 220.55,679.62 221.88,676.86 222.97,674.29 224.63,671.51"/>
    </edge>
    <edge id=":125070716_0" function="internal">
        <lane id=":125070716_0_0" index="0" allow="private emergency authority army vip passenger hov taxi bus coach delivery truck trailer motorcycle evehicle custom1 custom2" speed="22.22" length="0.10" shape="610.09,318.71 610.09,318.71"/>
    </edge>
    <edge id=":125070736_0" function="internal">
        <lane id=":125070736_0_0" index="0" disallow="pedestrian bicycle tram rail_urban rail rail_electric rail_fast ship" speed="22.22" length="4.62" shape="608.11,527.58 603.86,525.78"/>
    </edge>
    <edge id=":125070736_1" function="internal">
        <lane id=":125070736_1_0" index="0" disallow="pedestrian bicycle tram rail_urban rail rail_electric rail_fast ship" speed="3.65" length="2.34" shape="608.11,527.58 607.30,526.39 607.23,525.49"/>
    </edge>
    <edge id=":125070736_5" function="internal">
        <lane id=":125070736_5_0" index="0" disallow="pedestrian bicycle tram rail_urban rail rail_electric rail_fast ship" speed="3.65" length="2.34" shape="607.23,525.49 607.90,524.90 609.31,524.62"/>
    </edge>
    <edge id=":125070736_2" function="internal">
        <lane id=":125070736_2_0" index="0" disallow="pedestrian bicycle tram rail_urban rail rail_electric rail_fast ship" speed="22.22" length="4.31" shape="606.84,519.44 607.98,520.00 608.68,520.54 609.39,521.07 610.52,521.65"/>
    </edge>
    <edge id=":125070736_3" function="internal">
        <lane id=":125070736_3_0" index="0" disallow="pedestrian bicycle tram rail_urban rail rail_electric rail_fast ship" speed="22.22" length="4.58" shape="605.09,522.82 609.31,524.62"/>
    </edge>
    <edge id=":125070736_4" function="internal">
        <lane id=":125070736_4_0" index="0" disallow="pedestrian bicycle tram rail_urban rail rail_electric rail_fast ship" speed="3.65" length="2.34" shape="605.09,522.82 605.89,524.02 605.95,524.92"/>
    </edge>
    <edge id=":125070736_6" function="internal">
        <lane id=":125070736_6_0" index="0" disallow="pedestrian bicycle tram rail_urban rail rail_electric rail_fast ship" speed="3.65" length="2.34" shape="605.95,524.92 605.27,525.50 603.86,525.78"/>
    </edge>
    <edge id=":125075834_0" function="internal">
        <lane id=":125075834_0_0" index="0" allow="private emergency authority army vip passenger hov taxi bus coach delivery truck trailer motorcycle evehicle custom1 custom2" speed="22.22" length="16.09" shape="307.44,550.18 310.13,547.92 312.77,545.71 315.56,542.89 318.72,538.80"/>
    </edge>
    <edge id=":125075834_1" function="internal">
        <lane id=":125075834_1_0" index="0" allow="private emergency authority army vip passenger hov taxi bus coach delivery truck trailer motorcycle evehicle custom1 custom2" speed="22.22" length="16.44" shape="310.44,552.89 312.73,550.21 315.24,547.77 318.09,544.82 321.35,540.62"/>
    </edge>
    <edge id=":1377936987_0" function="internal">
        <lane id=":1377936987_0_0" index="0" disallow="tram rail_urban rail rail_electric rail_fast ship" speed="13.89" length="5.25" shape="659.17,1063.65 654.05,1062.46"/>
    </edge>
    <edge id=":1377936987_1" function="internal">
        <lane id=":1377936987_1_0" index="0" disallow="tram rail_urban rail rail_electric rail_fast ship" speed="3.65" length="2.34" shape="659.17,1063.65 658.18,1062.59 657.98,1061.72"/>
    </edge>
    <edge id=":1377936987_6" function="internal">
        <lane id=":1377936987_6_0" index="0" disallow="tram rail_urban rail rail_electric rail_fast ship" speed="3.65" length="2.34" shape="657.98,1061.72 658.55,1061.04 659.90,1060.53"/>
    </edge>
    <edge id=":1377936987_2" function="internal">
        <lane id=":1377936987_2_0" index="0" disallow="tram rail_urban rail rail_electric rail_fast ship" speed="13.89" length="5.27" shape="654.77,1059.34 659.90,1060.53"/>
    </edge>
    <edge id=":1377936987_3" function="internal">
        <lane id=":1377936987_3_0" index="0" disallow="tram rail_urban rail rail_electric rail_fast ship" speed="3.65" length="2.34" shape="654.77,1059.34 655.76,1060.39 655.97,1061.26"/>
    </edge>
    <edge id=":1377936987_7" function="internal">
        <lane id=":1377936987_7_0" index="0" disallow="tram rail_urban rail rail_electric rail_fast ship" speed="3.65" length="2.34" shape="655.97,1061.26 655.40,1061.95 654.05,1062.46"/>
    </edge>
    <edge id=":1377936987_4" function="internal">
        <lane id=":1377936987_4_0" index="0" disallow="tram rail_urban rail rail_electric rail_fast ship" speed="4.71" length="4.48" shape="656.14,1065.83 656.21,1064.58 655.88,1063.60 655.16,1062.89 654.05,1062.46"/>
    </edge>
    <edge id=":1377936987_5" function="internal">
        <lane id=":1377936987_5_0" index="0" disallow="tram rail_urban rail rail_electric rail_fast ship" speed="5.65" length="7.17" shape="656.14,1065.83 656.80,1063.28 657.64,1061.55 658.68,1060.63 659.90,1060.53"/>
    </edge>
    <edge id=":1377936990_0" function="internal">
        <lane id=":1377936990_0_0" index="0" disallow="tram rail_urban rail rail_electric rail_fast ship" speed="8.33" length="5.17" shape="759.89,1073.01 759.30,1074.43 758.92,1075.41 758.59,1076.40 758.15,1077.87"/>
    </edge>
    <edge id=":1377936990_1" function="internal">
        <lane id=":1377936990_1_0" index="0" disallow="tram rail_urban rail rail_electric rail_fast ship" speed="3.65" length="2.34" shape="759.89,1073.01 758.69,1073.81 757.80,1073.87"/>
    </edge>
    <edge id=":1377936990_4" function="internal">
        <lane id=":1377936990_4_0" index="0" disallow="tram rail_urban rail rail_electric rail_fast ship" speed="3.65" length="2.34" shape="757.80,1073.87 757.21,1073.19 756.93,1071.78"/>
    </edge>
    <edge id=":1377936990_2" function="internal">
        <lane id=":1377936990_2_0" index="0" disallow="tram rail_urban rail rail_electric rail_fast ship" speed="8.33" length="5.42" shape="755.11,1076.88 755.57,1075.34 755.92,1074.29 756.32,1073.27 756.93,1071.78"/>
    </edge>
    <edge id=":1377936990_3" function="internal">
        <lane id=":1377936990_3_0" index="0" disallow="tram rail_urban rail rail_electric rail_fast ship" speed="3.65" length="2.34" shape="755.11,1076.88 756.24,1075.99 757.13,1075.85"/>
    </edge>
    <edge id=":1377936990_5" function="internal">
        <lane id=":1377936990_5_0" index="0" disallow="tram rail_urban rail rail_electric rail_fast ship" speed="3.65" length="2.34" shape="757.13,1075.85 757.76,1076.48 758.15,1077.87"/>
    </edge>
    <edge id=":1440389795_0" function="internal">
        <lane id=":1440389795_0_0" index="0" disallow="tram rail_urban rail rail_electric rail_fast ship" speed="13.89" length="5.09" shape="696.13,900.03 693.38,904.31"/>
    </edge>
    <edge id=":1440389795_1" function="internal">
        <lane id=":1440389795_1_0" index="0" disallow="tram rail_urban rail rail_electric rail_fast ship" speed="3.65" length="2.34" shape="696.13,900.03 694.81,900.60 693.92,900.50"/>
    </edge>
    <edge id=":1440389795_4" function="internal">
        <lane id=":1440389795_4_0" index="0" disallow="tram rail_urban rail rail_electric rail_fast ship" speed="3.65" length="2.34" shape="693.92,900.50 693.47,899.73 693.45,898.29"/>
    </edge>
    <edge id=":1440389795_2" function="internal">
        <lane id=":1440389795_2_0" index="0" disallow="tram rail_urban rail rail_electric rail_fast ship" speed="13.89" length="5.13" shape="690.67,902.60 693.45,898.29"/>
    </edge>
    <edge id=":1440389795_3" function="internal">
        <lane id=":1440389795_3_0" index="0" disallow="tram rail_urban rail rail_electric rail_fast ship" speed="3.65" length="2.34" shape="690.67,902.60 691.99,902.02 692.88,902.11"/>
    </edge>
    <edge id=":1440389795_5" function="internal">
        <lane id=":1440389795_5_0" index="0" disallow="tram rail_urban rail rail_electric rail_fast ship" speed="3.65" length="2.34" shape="692.88,902.11 693.34,902.87 693.38,904.31"/>
    </edge>
    <edge id=":1440390763_0" function="internal">
        <lane id=":1440390763_0_0" index="0" disallow="tram rail_urban rail rail_electric rail_fast ship" speed="7.76" length="10.53" shape="715.44,882.54 712.36,881.91 709.76,882.08 707.63,883.06 705.97,884.85"/>
    </edge>
    <edge id=":1440390763_1" function="internal">
        <lane id=":1440390763_1_0" index="0" disallow="tram rail_urban rail rail_electric rail_fast ship" speed="7.62" length="15.28" shape="715.44,882.54 711.50,880.67 709.47,878.09 709.35,874.81 711.12,870.83"/>
    </edge>
    <edge id=":1440390763_2" function="internal">
        <lane id=":1440390763_2_0" index="0" disallow="tram rail_urban rail rail_electric rail_fast ship" speed="3.65" length="4.67" shape="715.44,882.54 714.53,881.42 714.39,880.54 715.01,879.90 716.39,879.49"/>
    </edge>
    <edge id=":1440390763_3" function="internal">
        <lane id=":1440390763_3_0" index="0" disallow="tram rail_urban rail rail_electric rail_fast ship" speed="6.02" length="9.08" shape="713.83,872.53 712.77,874.90 712.85,876.84 714.06,878.37 716.39,879.49"/>
    </edge>
    <edge id=":1440390763_4" function="internal">
        <lane id=":1440390763_4_0" index="0" disallow="tram rail_urban rail rail_electric rail_fast ship" speed="13.89" length="14.61" shape="713.83,872.53 705.97,884.85"/>
    </edge>
    <edge id=":1440390763_5" function="internal">
        <lane id=":1440390763_5_0" index="0" disallow="tram rail_urban rail rail_electric rail_fast ship" speed="3.65" length="2.34" shape="713.83,872.53 712.51,873.12 711.62,873.03"/>
    </edge>
    <edge id=":1440390763_9" function="internal">
        <lane id=":1440390763_9_0" index="0" disallow="tram rail_urban rail rail_electric rail_fast ship" speed="3.65" length="2.34" shape="711.62,873.03 711.16,872.27 711.12,870.83"/>
    </edge>
    <edge id=":1440390763_6" function="internal">
        <lane id=":1440390763_6_0" index="0" disallow="tram rail_urban rail rail_electric rail_fast ship" speed="13.89" length="14.57" shape="703.29,883.11 711.12,870.83"/>
    </edge>
    <edge id=":1440390763_7" function="internal">
        <lane id=":1440390763_7_0" index="0" disallow="tram rail_urban rail rail_electric rail_fast ship" speed="9.08" length="5.51" shape="703.29,883.11 705.67,880.48 707.42,879.60"/>
    </edge>
    <edge id=":1440390763_8" function="internal">
        <lane id=":1440390763_8_0" index="0" disallow="tram rail_urban rail rail_electric rail_fast ship" speed="3.65" length="2.34" shape="703.29,883.11 704.61,882.54 705.50,882.63"/>
    </edge>
    <edge id=":1440390763_10" function="internal">
        <lane id=":1440390763_10_0" index="0" disallow="tram rail_urban rail rail_electric rail_fast ship" speed="9.08" length="9.21" shape="707.42,879.60 708.64,879.00 712.22,878.67 716.39,879.49"/>
    </edge>
    <edge id=":1440390763_11" function="internal">
        <lane id=":1440390763_11_0" index="0" disallow="tram rail_urban rail rail_electric rail_fast ship" speed="3.65" length="2.34" shape="705.50,882.63 705.95,883.41 705.97,884.85"/>
    </edge>
    <edge id=":1440390765_0" function="internal">
        <lane id=":1440390765_0_0" index="0" disallow="tram rail_urban rail rail_electric rail_fast ship" speed="3.65" length="4.67" shape="760.89,893.41 761.80,894.54 761.94,895.42 761.32,896.06 759.94,896.47"/>
    </edge>
    <edge id=":1485739634_0" function="internal">
        <lane id=":1485739634_0_0" index="0" disallow="tram rail_urban rail rail_electric rail_fast ship" speed="3.65" length="4.67" shape="630.97,227.74 630.22,226.51 630.20,225.61 630.91,225.06 632.33,224.85"/>
    </edge>
    <edge id=":1485761772_0" function="internal">
        <lane id=":1485761772_0_0" index="0" disallow="tram rail_urban rail rail_electric rail_fast ship" speed="3.65" length="4.67" shape="1380.17,582.63 1380.90,583.87 1380.91,584.77 1380.20,585.31 1378.77,585.51"/>
    </edge>
    <edge id=":1487351193_0" function="internal">
        <lane id=":1487351193_0_0" index="0" disallow="tram rail_urban rail rail_electric rail_fast ship" speed="8.33" length="5.83" shape="820.81,935.77 819.98,941.54"/>
    </edge>
    <edge id=":1487351193_1" function="internal">
        <lane id=":1487351193_1_0" index="0" disallow="tram rail_urban rail rail_electric rail_fast ship" speed="3.65" length="4.67" shape="820.81,935.77 819.87,936.86 819.03,937.17 818.28,936.67 817.63,935.39"/>
    </edge>
    <edge id=":1487351193_2" function="internal">
        <lane id=":1487351193_2_0" index="0" disallow="tram rail_urban rail rail_electric rail_fast ship" speed="8.33" length="5.57" shape="816.84,940.91 817.63,935.39"/>
    </edge>
    <edge id=":1487351193_3" function="internal">
        <lane id=":1487351193_3_0" index="0" disallow="tram rail_urban rail rail_electric rail_fast ship" speed="3.65" length="4.67" shape="816.84,940.91 817.86,939.89 818.73,939.65 819.43,940.20 819.98,941.54"/>
    </edge>
    <edge id=":1487351210_0" function="internal">
        <lane id=":1487351210_0_0" index="0" disallow="tram rail_urban rail rail_electric rail_fast ship" speed="8.33" length="4.16" shape="886.20,995.57 885.12,994.98 884.37,994.59 883.59,994.26 882.43,993.85"/>
    </edge>
    <edge id=":1487351210_1" function="internal">
        <lane id=":1487351210_1_0" index="0" disallow="tram rail_urban rail rail_electric rail_fast ship" speed="3.65" length="4.67" shape="886.20,995.57 885.53,994.29 885.57,993.40 886.30,992.89 887.74,992.77"/>
    </edge>
    <edge id=":1487351210_2" function="internal">
        <lane id=":1487351210_2_0" index="0" disallow="tram rail_urban rail rail_electric rail_fast ship" speed="8.33" length="4.72" shape="883.45,990.82 884.77,991.28 885.66,991.65 886.51,992.09 887.74,992.77"/>
    </edge>
    <edge id=":1487351210_3" function="internal">
        <lane id=":1487351210_3_0" index="0" disallow="tram rail_urban rail rail_electric rail_fast ship" speed="3.65" length="4.67" shape="883.45,990.82 884.33,991.96 884.45,992.84 883.82,993.47 882.43,993.85"/>
    </edge>
    <edge id=":1566744_0" function="internal">
        <lane id=":1566744_0_0" index="0" disallow="tram rail_urban rail rail_electric rail_fast ship" speed="13.89" length="4.85" shape="939.43,773.83 938.05,773.41 937.11,773.11 936.19,772.76 934.86,772.22"/>
    </edge>
    <edge id=":1566744_1" function="internal">
        <lane id=":1566744_1_0" index="0" disallow="tram rail_urban rail rail_electric rail_fast ship" speed="3.65" length="2.34" shape="939.43,773.83 938.51,772.72 938.36,771.83"/>
    </edge>
    <edge id=":1566744_4" function="internal">
        <lane id=":1566744_4_0" index="0" disallow="tram rail_urban rail rail_electric rail_fast ship" speed="3.65" length="2.34" shape="938.36,771.83 938.98,771.18 940.36,770.77"/>
    </edge>
    <edge id=":1566744_2" function="internal">
        <lane id=":1566744_2_0" index="0" disallow="tram rail_urban rail rail_electric rail_fast ship" speed="13.89" length="4.54" shape="936.08,769.26 937.32,769.77 938.19,770.09 939.07,770.37 940.36,770.77"/>
    </edge>
    <edge id=":1566744_3" function="internal">
        <lane id=":1566744_3_0" index="0" disallow="tram rail_urban rail rail_electric rail_fast ship" speed="3.65" length="2.34" shape="936.08,769.26 936.88,770.45 936.95,771.35"/>
    </edge>
    <edge id=":1566744_5" function="internal">
        <lane id=":1566744_5_0" index="0" disallow="tram rail_urban rail rail_electric rail_fast ship" speed="3.65" length="2.34" shape="936.95,771.35 936.27,771.93 934.86,772.22"/>
    </edge>
    <edge id=":1566902_0" function="internal">
        <lane id=":1566902_0_0" index="0" disallow="tram rail_urban rail rail_electric rail_fast ship" speed="8.60" length="11.58" shape="794.32,727.36 790.93,728.57 788.40,730.15 786.76,732.10 785.98,734.42"/>
    </edge>
    <edge id=":1566902_1" function="internal">
        <lane id=":1566902_1_0" index="0" disallow="tram rail_urban rail rail_electric rail_fast ship" speed="7.46" length="16.20" shape="794.32,727.36 789.58,727.95 786.48,726.75 785.01,723.76 785.17,718.99"/>
    </edge>
    <edge id=":1566902_2" function="internal">
        <lane id=":1566902_2_0" index="0" disallow="tram rail_urban rail rail_electric rail_fast ship" speed="3.65" length="4.67" shape="794.32,727.36 792.95,726.90 792.36,726.23 792.54,725.35 793.50,724.27"/>
    </edge>
    <edge id=":1566902_3" function="internal">
        <lane id=":1566902_3_0" index="0" disallow="tram rail_urban rail rail_electric rail_fast ship" speed="5.77" length="9.16" shape="788.32,719.54 788.23,722.23 789.06,723.92 790.82,724.60 793.50,724.27"/>
    </edge>
    <edge id=":1566902_4" function="internal">
        <lane id=":1566902_4_0" index="0" disallow="tram rail_urban rail rail_electric rail_fast ship" speed="13.89" length="15.07" shape="788.32,719.54 785.98,734.42"/>
    </edge>
    <edge id=":1566902_5" function="internal">
        <lane id=":1566902_5_0" index="0" disallow="tram rail_urban rail rail_electric rail_fast ship" speed="3.65" length="2.34" shape="788.32,719.54 787.33,720.58 786.47,720.84"/>
    </edge>
    <edge id=":1566902_9" function="internal">
        <lane id=":1566902_9_0" index="0" disallow="tram rail_urban rail rail_electric rail_fast ship" speed="3.65" length="2.34" shape="786.47,720.84 785.75,720.31 785.17,718.99"/>
    </edge>
    <edge id=":1566902_6" function="internal">
        <lane id=":1566902_6_0" index="0" disallow="tram rail_urban rail rail_electric rail_fast ship" speed="13.89" length="15.19" shape="782.81,733.99 785.17,718.99"/>
    </edge>
    <edge id=":1566902_7" function="internal">
        <lane id=":1566902_7_0" index="0" disallow="tram rail_urban rail rail_electric rail_fast ship" speed="9.83" length="5.69" shape="782.81,733.99 783.84,730.71 785.22,728.94"/>
    </edge>
    <edge id=":1566902_8" function="internal">
        <lane id=":1566902_8_0" index="0" disallow="tram rail_urban rail rail_electric rail_fast ship" speed="3.65" length="2.34" shape="782.81,733.99 783.76,732.91 784.61,732.62"/>
    </edge>
    <edge id=":1566902_10" function="internal">
        <lane id=":1566902_10_0" index="0" disallow="tram rail_urban rail rail_electric rail_fast ship" speed="9.83" length="9.66" shape="785.22,728.94 785.96,727.99 789.18,725.85 793.50,724.27"/>
    </edge>
    <edge id=":1566902_11" function="internal">
        <lane id=":1566902_11_0" index="0" disallow="tram rail_urban rail rail_electric rail_fast ship" speed="3.65" length="2.34" shape="784.61,732.62 785.35,733.13 785.98,734.42"/>
    </edge>
    <edge id=":1566994_0" function="internal">
        <lane id=":1566994_0_0" index="0" disallow="tram rail_urban rail rail_electric rail_fast ship" speed="7.18" length="9.01" shape="739.96,840.52 737.60,840.12 735.52,840.46 733.71,841.55 732.18,843.39"/>
    </edge>
    <edge id=":1566994_1" function="internal">
        <lane id=":1566994_1_0" index="0" disallow="tram rail_urban rail rail_electric rail_fast ship" speed="6.03" length="9.18" shape="739.96,840.52 736.48,839.25 734.23,837.99 733.20,836.73 733.40,835.47"/>
    </edge>
    <edge id=":1566994_2" function="internal">