<?xml version="1.0" encoding="UTF-8"?>

<!-- generated on Sat Nov 30 00:51:22 2019 by Eclipse SUMO netconvert Version 1.3.1
<configuration xmlns:xsi="http://www.w3.org/2001/XMLSchema-instance" xsi:noNamespaceSchemaLocation="http://sumo.dlr.de/xsd/netconvertConfiguration.xsd">

    <input>
        <osm-files value="670_road-network.osm"/>
    </input>

    <output>
        <output-file value="../net/road-network_670.net.xml"/>
    </output>

    <projection>
        <proj.utm value="true"/>
    </projection>

</configuration>
-->

<net version="1.3" junctionCornerDetail="5" limitTurnSpeed="5.50" xmlns:xsi="http://www.w3.org/2001/XMLSchema-instance" xsi:noNamespaceSchemaLocation="http://sumo.dlr.de/xsd/net_file.xsd">

    <location netOffset="-704293.86,-5339360.04" convBoundary="0.00,0.00,1798.02,2122.78" origBoundary="11.748280,48.174438,11.772828,48.193541" projParameter="+proj=utm +zone=32 +ellps=WGS84 +datum=WGS84 +units=m +no_defs"/>

    <type id="highway.bridleway" priority="1" numLanes="1" speed="2.78" allow="pedestrian" oneway="1" width="2.00"/>
    <type id="highway.bus_guideway" priority="1" numLanes="1" speed="27.78" allow="bus" oneway="1"/>
    <type id="highway.cycleway" priority="1" numLanes="1" speed="8.33" allow="bicycle" oneway="0" width="1.00"/>
    <type id="highway.footway" priority="1" numLanes="1" speed="2.78" allow="pedestrian" oneway="1" width="2.00"/>
    <type id="highway.ford" priority="1" numLanes="1" speed="2.78" allow="army" oneway="0"/>
    <type id="highway.living_street" priority="2" numLanes="1" speed="2.78" disallow="tram rail_urban rail rail_electric rail_fast ship" oneway="0"/>
    <type id="highway.motorway" priority="14" numLanes="2" speed="39.44" allow="private emergency authority army vip passenger hov taxi bus coach delivery truck trailer motorcycle evehicle custom1 custom2" oneway="1"/>
    <type id="highway.motorway_link" priority="9" numLanes="1" speed="22.22" allow="private emergency authority army vip passenger hov taxi bus coach delivery truck trailer motorcycle evehicle custom1 custom2" oneway="1"/>
    <type id="highway.path" priority="1" numLanes="1" speed="2.78" allow="pedestrian bicycle" oneway="1" width="2.00"/>
    <type id="highway.pedestrian" priority="1" numLanes="1" speed="2.78" allow="pedestrian" oneway="1" width="2.00"/>
    <type id="highway.primary" priority="12" numLanes="2" speed="27.78" disallow="tram rail_urban rail rail_electric rail_fast ship" oneway="0"/>
    <type id="highway.primary_link" priority="7" numLanes="1" speed="22.22" disallow="tram rail_urban rail rail_electric rail_fast ship" oneway="0"/>
    <type id="highway.raceway" priority="15" numLanes="2" speed="83.33" allow="vip" oneway="0"/>
    <type id="highway.residential" priority="3" numLanes="1" speed="13.89" disallow="tram rail_urban rail rail_electric rail_fast ship" oneway="0"/>
    <type id="highway.secondary" priority="11" numLanes="2" speed="27.78" disallow="tram rail_urban rail rail_electric rail_fast ship" oneway="0"/>
    <type id="highway.secondary_link" priority="6" numLanes="1" speed="22.22" disallow="tram rail_urban rail rail_electric rail_fast ship" oneway="0"/>
    <type id="highway.service" priority="1" numLanes="1" speed="5.56" allow="pedestrian delivery bicycle" oneway="0"/>
    <type id="highway.stairs" priority="1" numLanes="1" speed="1.39" allow="pedestrian" oneway="1" width="2.00"/>
    <type id="highway.step" priority="1" numLanes="1" speed="1.39" allow="pedestrian" oneway="1" width="2.00"/>
    <type id="highway.steps" priority="1" numLanes="1" speed="1.39" allow="pedestrian" oneway="1" width="2.00"/>
    <type id="highway.tertiary" priority="10" numLanes="1" speed="22.22" disallow="tram rail_urban rail rail_electric rail_fast ship" oneway="0"/>
    <type id="highway.tertiary_link" priority="5" numLanes="1" speed="22.22" disallow="tram rail_urban rail rail_electric rail_fast ship" oneway="0"/>
    <type id="highway.track" priority="1" numLanes="1" speed="5.56" disallow="tram rail_urban rail rail_electric rail_fast ship" oneway="0"/>
    <type id="highway.trunk" priority="13" numLanes="2" speed="27.78" disallow="pedestrian bicycle tram rail_urban rail rail_electric rail_fast ship" oneway="0"/>
    <type id="highway.trunk_link" priority="8" numLanes="1" speed="22.22" disallow="pedestrian bicycle tram rail_urban rail rail_electric rail_fast ship" oneway="0"/>
    <type id="highway.unclassified" priority="4" numLanes="1" speed="13.89" disallow="tram rail_urban rail rail_electric rail_fast ship" oneway="0"/>
    <type id="highway.unsurfaced" priority="1" numLanes="1" speed="8.33" disallow="tram rail_urban rail rail_electric rail_fast ship" oneway="0"/>
    <type id="railway.highspeed" priority="21" numLanes="1" speed="69.44" allow="rail_fast" oneway="1"/>
    <type id="railway.light_rail" priority="19" numLanes="1" speed="27.78" allow="rail_urban" oneway="1"/>
    <type id="railway.preserved" priority="16" numLanes="1" speed="27.78" allow="rail" oneway="1"/>
    <type id="railway.rail" priority="20" numLanes="1" speed="44.44" allow="rail" oneway="1"/>
    <type id="railway.subway" priority="18" numLanes="1" speed="27.78" allow="rail_urban" oneway="1"/>
    <type id="railway.tram" priority="17" numLanes="1" speed="13.89" allow="tram" oneway="1"/>

    <edge id=":10306463_0" function="internal">
        <lane id=":10306463_0_0" index="0" disallow="tram rail_urban rail rail_electric rail_fast ship" speed="6.48" length="9.03" shape="535.01,723.77 532.71,722.83 530.68,722.86 528.90,723.86 527.38,725.82"/>
    </edge>
    <edge id=":10306463_1" function="internal">
        <lane id=":10306463_1_0" index="0" disallow="tram rail_urban rail rail_electric rail_fast ship" speed="5.56" length="14.56" shape="535.01,723.77 522.52,716.28"/>
    </edge>
    <edge id=":10306463_2" function="internal">
        <lane id=":10306463_2_0" index="0" disallow="tram rail_urban rail rail_electric rail_fast ship" speed="6.95" length="14.30" shape="535.01,723.77 531.95,721.34 530.40,718.50 530.36,715.26 531.82,711.62"/>
    </edge>
    <edge id=":10306463_3" function="internal">
        <lane id=":10306463_3_0" index="0" disallow="tram rail_urban rail rail_electric rail_fast ship" speed="3.65" length="4.67" shape="535.01,723.77 534.38,722.47 534.44,721.58 535.19,721.09 536.63,721.01"/>
    </edge>
    <edge id=":10306463_4" function="internal">
        <lane id=":10306463_4_0" index="0" disallow="tram rail_urban rail rail_electric rail_fast ship" speed="6.56" length="9.16" shape="534.59,713.22 533.65,715.56 533.68,717.63 534.67,719.45 536.63,721.01"/>
    </edge>
    <edge id=":10306463_5" function="internal">
        <lane id=":10306463_5_0" index="0" disallow="tram rail_urban rail rail_electric rail_fast ship" speed="11.11" length="14.52" shape="534.59,713.22 527.38,725.82"/>
    </edge>
    <edge id=":10306463_6" function="internal">
        <lane id=":10306463_6_0" index="0" disallow="tram rail_urban rail rail_electric rail_fast ship" speed="6.95" length="5.89" shape="534.59,713.22 532.16,716.31 530.45,717.25"/>
    </edge>
    <edge id=":10306463_7" function="internal">
        <lane id=":10306463_7_0" index="0" disallow="tram rail_urban rail rail_electric rail_fast ship" speed="3.65" length="2.34" shape="534.59,713.22 533.30,713.86 532.41,713.81"/>
    </edge>
    <edge id=":10306463_16" function="internal">
        <lane id=":10306463_16_0" index="0" disallow="tram rail_urban rail rail_electric rail_fast ship" speed="6.95" length="8.40" shape="530.45,717.25 529.34,717.85 526.13,717.84 522.52,716.28"/>
    </edge>
    <edge id=":10306463_17" function="internal">
        <lane id=":10306463_17_0" index="0" disallow="tram rail_urban rail rail_electric rail_fast ship" speed="3.65" length="2.34" shape="532.41,713.81 531.92,713.06 531.82,711.62"/>
    </edge>
    <edge id=":10306463_8" function="internal">
        <lane id=":10306463_8_0" index="0" disallow="tram rail_urban rail rail_electric rail_fast ship" speed="6.45" length="9.03" shape="524.19,713.56 526.47,714.54 528.50,714.55 530.29,713.57 531.82,711.62"/>
    </edge>
    <edge id=":10306463_9" function="internal">
        <lane id=":10306463_9_0" index="0" disallow="tram rail_urban rail rail_electric rail_fast ship" speed="5.56" length="14.50" shape="524.19,713.56 536.63,721.01"/>
    </edge>
    <edge id=":10306463_10" function="internal">
        <lane id=":10306463_10_0" index="0" disallow="tram rail_urban rail rail_electric rail_fast ship" speed="8.14" length="14.34" shape="524.19,713.56 527.21,716.05 528.75,718.93 528.81,722.19 527.38,725.82"/>
    </edge>
    <edge id=":10306463_11" function="internal">
        <lane id=":10306463_11_0" index="0" disallow="tram rail_urban rail rail_electric rail_fast ship" speed="3.65" length="4.67" shape="524.19,713.56 524.80,714.87 524.72,715.76 523.96,716.23 522.52,716.28"/>
    </edge>
    <edge id=":10306463_12" function="internal">
        <lane id=":10306463_12_0" index="0" disallow="tram rail_urban rail rail_electric rail_fast ship" speed="6.68" length="9.31" shape="524.60,724.24 525.52,721.89 525.48,719.77 524.48,717.91 522.52,716.28"/>
    </edge>
    <edge id=":10306463_13" function="internal">
        <lane id=":10306463_13_0" index="0" disallow="tram rail_urban rail rail_electric rail_fast ship" speed="11.11" length="14.54" shape="524.60,724.24 531.82,711.62"/>
    </edge>
    <edge id=":10306463_14" function="internal">
        <lane id=":10306463_14_0" index="0" disallow="tram rail_urban rail rail_electric rail_fast ship" speed="7.98" length="5.98" shape="524.60,724.24 526.99,721.15 528.79,720.14"/>
    </edge>
    <edge id=":10306463_15" function="internal">
        <lane id=":10306463_15_0" index="0" disallow="tram rail_urban rail rail_electric rail_fast ship" speed="3.65" length="2.34" shape="524.60,724.24 525.89,723.59 526.78,723.64"/>
    </edge>
    <edge id=":10306463_18" function="internal">
        <lane id=":10306463_18_0" index="0" disallow="tram rail_urban rail rail_electric rail_fast ship" speed="7.98" length="8.27" shape="528.79,720.14 529.79,719.58 533.00,719.53 536.63,721.01"/>
    </edge>
    <edge id=":10306463_19" function="internal">
        <lane id=":10306463_19_0" index="0" disallow="tram rail_urban rail rail_electric rail_fast ship" speed="3.65" length="2.34" shape="526.78,723.64 527.28,724.38 527.38,725.82"/>
    </edge>
    <edge id=":10306489_0" function="internal">
        <lane id=":10306489_0_0" index="0" disallow="tram rail_urban rail rail_electric rail_fast ship" speed="3.65" length="4.67" shape="1096.65,1028.09 1097.32,1029.37 1097.29,1030.26 1096.55,1030.77 1095.12,1030.90"/>
    </edge>
    <edge id=":10307096_0" function="internal">
        <lane id=":10307096_0_0" index="0" allow="pedestrian bicycle" speed="2.78" length="4.05" width="2.00" shape="803.83,569.22 802.84,568.72 801.93,568.66 801.11,569.06 800.38,569.91"/>
    </edge>
    <edge id=":10307096_1" function="internal">
        <lane id=":10307096_1_0" index="0" allow="pedestrian bicycle" speed="2.78" length="5.03" width="2.00" shape="803.83,569.22 799.66,566.40"/>
    </edge>
    <edge id=":10307665_0" function="internal">
        <lane id=":10307665_0_0" index="0" disallow="tram rail_urban rail rail_electric rail_fast ship" speed="5.99" length="9.08" shape="638.14,519.29 635.80,518.17 633.86,518.19 632.32,519.38 631.18,521.72"/>
    </edge>
    <edge id=":10307665_1" function="internal">
        <lane id=":10307665_1_0" index="0" disallow="tram rail_urban rail rail_electric rail_fast ship" speed="9.26" length="14.76" shape="638.14,519.29 634.85,516.55 632.79,513.56 631.97,510.33 632.39,506.84"/>
    </edge>
    <edge id=":10307665_2" function="internal">
        <lane id=":10307665_2_0" index="0" disallow="tram rail_urban rail rail_electric rail_fast ship" speed="3.65" length="4.67" shape="638.14,519.29 637.59,517.96 637.70,517.07 638.48,516.63 639.92,516.63"/>
    </edge>
    <edge id=":10307665_3" function="internal">
        <lane id=":10307665_3_0" index="0" disallow="tram rail_urban rail rail_electric rail_fast ship" speed="7.96" length="10.70" shape="635.46,507.73 635.21,510.15 635.86,512.44 637.44,514.60 639.92,516.63"/>
    </edge>
    <edge id=":10307665_4" function="internal">
        <lane id=":10307665_4_0" index="0" disallow="tram rail_urban rail rail_electric rail_fast ship" speed="8.33" length="14.63" shape="635.46,507.73 631.18,521.72"/>
    </edge>
    <edge id=":10307665_5" function="internal">
        <lane id=":10307665_5_0" index="0" disallow="tram rail_urban rail rail_electric rail_fast ship" speed="3.65" length="4.67" shape="635.46,507.73 634.36,508.66 633.48,508.82 632.82,508.22 632.39,506.84"/>
    </edge>
    <edge id=":10307665_6" function="internal">
        <lane id=":10307665_6_0" index="0" disallow="tram rail_urban rail rail_electric rail_fast ship" speed="8.33" length="14.53" shape="628.14,520.74 632.39,506.84"/>
    </edge>
    <edge id=":10307665_7" function="internal">
        <lane id=":10307665_7_0" index="0" disallow="tram rail_urban rail rail_electric rail_fast ship" speed="7.59" length="15.38" shape="628.14,520.74 630.06,516.78 632.66,514.77 635.95,514.72 639.92,516.63"/>
    </edge>
    <edge id=":10307665_8" function="internal">
        <lane id=":10307665_8_0" index="0" disallow="tram rail_urban rail rail_electric rail_fast ship" speed="3.65" length="4.67" shape="628.14,520.74 629.26,519.84 630.15,519.70 630.79,520.33 631.18,521.72"/>
    </edge>
    <edge id=":1069133800_0" function="internal">
        <lane id=":1069133800_0_0" index="0" disallow="tram rail_urban rail rail_electric rail_fast ship" speed="3.65" length="4.67" shape="536.52,0.19 537.18,-1.10 537.92,-1.59 538.77,-1.29 539.70,-0.19"/>
    </edge>
    <edge id=":1564065_0" function="internal">
        <lane id=":1564065_0_0" index="0" disallow="tram rail_urban rail rail_electric rail_fast ship" speed="13.89" length="14.10" shape="792.06,436.79 779.84,429.77"/>
    </edge>
    <edge id=":1564065_1" function="internal">
        <lane id=":1564065_1_0" index="0" disallow="tram rail_urban rail rail_electric rail_fast ship" speed="8.20" length="5.53" shape="792.06,436.79 789.17,434.36 788.35,432.82"/>
    </edge>
    <edge id=":1564065_2" function="internal">
        <lane id=":1564065_2_0" index="0" disallow="tram rail_urban rail rail_electric rail_fast ship" speed="3.65" length="2.34" shape="792.06,436.79 791.46,435.48 791.54,434.59"/>
    </edge>
    <edge id=":1564065_9" function="internal">
        <lane id=":1564065_9_0" index="0" disallow="tram rail_urban rail rail_electric rail_fast ship" speed="8.20" length="8.60" shape="788.35,432.82 787.67,431.52 787.58,428.28 788.90,424.62"/>
    </edge>
    <edge id=":1564065_10" function="internal">
        <lane id=":1564065_10_0" index="0" disallow="tram rail_urban rail rail_electric rail_fast ship" speed="3.65" length="2.34" shape="791.54,434.59 792.30,434.12 793.75,434.07"/>
    </edge>
    <edge id=":1564065_3" function="internal">
        <lane id=":1564065_3_0" index="0" disallow="tram rail_urban rail rail_electric rail_fast ship" speed="6.74" length="9.24" shape="791.73,426.10 790.86,428.50 790.91,430.63 791.87,432.49 793.75,434.07"/>
    </edge>
    <edge id=":1564065_4" function="internal">
        <lane id=":1564065_4_0" index="0" disallow="tram rail_urban rail rail_electric rail_fast ship" speed="7.98" length="14.23" shape="791.73,426.10 789.45,429.27 786.71,430.94 783.51,431.10 779.84,429.77"/>
    </edge>
    <edge id=":1564065_5" function="internal">
        <lane id=":1564065_5_0" index="0" disallow="tram rail_urban rail rail_electric rail_fast ship" speed="3.65" length="4.67" shape="791.73,426.10 790.47,426.79 789.57,426.77 789.05,426.05 788.90,424.62"/>
    </edge>
    <edge id=":1564065_6" function="internal">
        <lane id=":1564065_6_0" index="0" disallow="tram rail_urban rail rail_electric rail_fast ship" speed="6.49" length="9.03" shape="781.35,426.95 783.67,427.79 785.71,427.69 787.45,426.63 788.90,424.62"/>
    </edge>
    <edge id=":1564065_7" function="internal">
        <lane id=":1564065_7_0" index="0" disallow="tram rail_urban rail rail_electric rail_fast ship" speed="13.89" length="14.30" shape="781.35,426.95 793.75,434.07"/>
    </edge>
    <edge id=":1564065_8" function="internal">
        <lane id=":1564065_8_0" index="0" disallow="tram rail_urban rail rail_electric rail_fast ship" speed="3.65" length="2.34" shape="781.35,426.95 782.03,428.22 782.00,429.11"/>
    </edge>
    <edge id=":1564065_11" function="internal">
        <lane id=":1564065_11_0" index="0" disallow="tram rail_urban rail rail_electric rail_fast ship" speed="3.65" length="2.34" shape="782.00,429.11 781.27,429.63 779.84,429.77"/>
    </edge>
    <edge id=":1564426_0" function="internal">
        <lane id=":1564426_0_0" index="0" disallow="tram rail_urban rail rail_electric rail_fast ship" speed="6.38" length="9.04" shape="1125.26,448.06 1122.89,447.26 1120.88,447.43 1119.22,448.58 1117.90,450.70"/>
    </edge>
    <edge id=":1564426_1" function="internal">
        <lane id=":1564426_1_0" index="0" allow="pedestrian delivery bicycle" speed="9.72" length="16.77" shape="1125.26,448.06 1110.48,440.15"/>
    </edge>
    <edge id=":1564426_2" function="internal">
        <lane id=":1564426_2_0" index="0" disallow="tram rail_urban rail rail_electric rail_fast ship" speed="9.11" length="17.78" shape="1125.26,448.06 1120.78,445.12 1118.11,441.76 1117.26,438.00 1118.23,433.83"/>
    </edge>
    <edge id=":1564426_3" function="internal">
        <lane id=":1564426_3_0" index="0" disallow="tram rail_urban rail rail_electric rail_fast ship" speed="3.65" length="4.67" shape="1125.26,448.06 1124.55,446.81 1124.56,445.91 1125.28,445.38 1126.71,445.21"/>
    </edge>
    <edge id=":1564426_4" function="internal">
        <lane id=":1564426_4_0" index="0" disallow="tram rail_urban rail rail_electric rail_fast ship" speed="7.09" length="10.37" shape="1124.11,436.36 1123.28,439.23 1123.43,441.66 1124.58,443.66 1126.71,445.21"/>
    </edge>
    <edge id=":1564426_5" function="internal">
        <lane id=":1564426_5_0" index="0" disallow="tram rail_urban rail rail_electric rail_fast ship" speed="19.44" length="15.62" shape="1124.11,436.36 1117.90,450.70"/>
        <lane id=":1564426_5_1" index="1" disallow="tram rail_urban rail rail_electric rail_fast ship" speed="19.44" length="15.62" shape="1121.17,435.09 1114.97,449.42"/>
    </edge>
    <edge id=":1564426_7" function="internal">
        <lane id=":1564426_7_0" index="0" allow="pedestrian delivery bicycle" speed="7.58" length="6.76" shape="1121.17,435.09 1119.05,438.80 1117.13,440.40"/>
    </edge>
    <edge id=":1564426_8" function="internal">
        <lane id=":1564426_8_0" index="0" disallow="tram rail_urban rail rail_electric rail_fast ship" speed="3.65" length="2.34" shape="1121.17,435.09 1119.96,435.88 1119.07,435.93"/>
    </edge>
    <edge id=":1564426_18" function="internal">
        <lane id=":1564426_18_0" index="0" allow="pedestrian delivery bicycle" speed="7.58" length="7.07" shape="1117.13,440.40 1116.56,440.87 1113.70,441.32 1110.48,440.15"/>
    </edge>
    <edge id=":1564426_19" function="internal">
        <lane id=":1564426_19_0" index="0" disallow="tram rail_urban rail rail_electric rail_fast ship" speed="3.65" length="2.34" shape="1119.07,435.93 1118.49,435.25 1118.23,433.83"/>
    </edge>
    <edge id=":1564426_9" function="internal">
        <lane id=":1564426_9_0" index="0" disallow="tram rail_urban rail rail_electric rail_fast ship" speed="5.25" length="6.02" shape="1112.00,437.33 1112.58,437.25 1113.32,436.43 1114.22,434.87 1115.29,432.57"/>
    </edge>
    <edge id=":1564426_10" function="internal">
        <lane id=":1564426_10_0" index="0" disallow="tram rail_urban rail rail_electric rail_fast ship" speed="9.72" length="16.68" shape="1112.00,437.33 1126.71,445.21"/>
    </edge>
    <edge id=":1564426_11" function="internal">
        <lane id=":1564426_11_0" index="0" disallow="tram rail_urban rail rail_electric rail_fast ship" speed="8.26" length="13.83" shape="1112.00,437.33 1114.65,439.52 1116.03,442.27 1116.14,445.57 1114.97,449.42"/>
    </edge>
    <edge id=":1564426_12" function="internal">
        <lane id=":1564426_12_0" index="0" allow="pedestrian delivery bicycle" speed="3.65" length="4.68" shape="1112.00,437.33 1112.68,438.61 1112.65,439.50 1111.92,440.01 1110.48,440.15"/>
    </edge>
    <edge id=":1564426_13" function="internal">
        <lane id=":1564426_13_0" index="0" allow="pedestrian delivery bicycle" speed="6.09" length="7.10" shape="1109.10,446.85 1110.17,444.19 1110.76,442.18 1110.86,440.84 1110.48,440.15"/>
    </edge>
    <edge id=":1564426_14" function="internal">
        <lane id=":1564426_14_0" index="0" disallow="tram rail_urban rail rail_electric rail_fast ship" speed="19.44" length="15.58" shape="1109.10,446.85 1115.29,432.57"/>
        <lane id=":1564426_14_1" index="1" disallow="tram rail_urban rail rail_electric rail_fast ship" speed="19.44" length="15.58" shape="1112.04,448.14 1118.23,433.83"/>
    </edge>
    <edge id=":1564426_16" function="internal">
        <lane id=":1564426_16_0" index="0" disallow="tram rail_urban rail rail_electric rail_fast ship" speed="8.57" length="5.36" shape="1112.04,448.14 1114.35,444.77 1115.49,444.19"/>
    </edge>
    <edge id=":1564426_17" function="internal">
        <lane id=":1564426_17_0" index="0" disallow="tram rail_urban rail rail_electric rail_fast ship" speed="3.65" length="2.34" shape="1112.04,448.14 1113.25,447.36 1114.14,447.31"/>
    </edge>
    <edge id=":1564426_20" function="internal">
        <lane id=":1564426_20_0" index="0" disallow="tram rail_urban rail rail_electric rail_fast ship" speed="8.57" length="11.82" shape="1115.49,444.19 1117.56,443.15 1121.68,443.30 1126.71,445.21"/>
    </edge>
    <edge id=":1564426_21" function="internal">
        <lane id=":1564426_21_0" index="0" disallow="tram rail_urban rail rail_electric rail_fast ship" speed="3.65" length="2.34" shape="1114.14,447.31 1114.72,448.00 1114.97,449.42"/>
    </edge>
    <edge id=":1617013_0" function="internal">
        <lane id=":1617013_0_0" index="0" allow="bicycle" speed="5.10" length="5.77" width="1.00" shape="853.24,601.51 851.26,600.16 849.76,599.36 848.73,599.12 848.19,599.44"/>
    </edge>
    <edge id=":1617013_1" function="internal">
        <lane id=":1617013_1_0" index="0" disallow="tram rail_urban rail rail_electric rail_fast ship" speed="13.89" length="14.48" shape="853.89,600.62 842.09,592.22"/>
    </edge>
    <edge id=":1617013_2" function="internal">
        <lane id=":1617013_2_0" index="0" disallow="tram rail_urban rail rail_electric rail_fast ship" speed="9.01" length="5.47" shape="853.89,600.62 851.39,598.09 850.63,596.34"/>
    </edge>
    <edge id=":1617013_3" function="internal">
        <lane id=":1617013_3_0" index="0" disallow="tram rail_urban rail rail_electric rail_fast ship" speed="3.65" length="2.34" shape="853.89,600.62 853.39,599.27 853.54,598.39"/>
    </edge>
    <edge id=":1617013_16" function="internal">
        <lane id=":1617013_16_0" index="0" disallow="tram rail_urban rail rail_electric rail_fast ship" speed="9.01" length="9.18" shape="850.63,596.34 850.08,595.05 849.97,591.49 851.06,587.42"/>
    </edge>
    <edge id=":1617013_17" function="internal">
        <lane id=":1617013_17_0" index="0" disallow="tram rail_urban rail rail_electric rail_fast ship" speed="3.65" length="2.34" shape="853.54,598.39 854.34,597.98 855.78,598.04"/>
    </edge>
    <edge id=":1617013_4" function="internal">
        <lane id=":1617013_4_0" index="0" disallow="tram rail_urban rail rail_electric rail_fast ship" speed="7.68" length="10.42" shape="854.04,588.58 853.22,591.56 853.24,594.13 854.09,596.29 855.78,598.04"/>
    </edge>
    <edge id=":1617013_5" function="internal">
        <lane id=":1617013_5_0" index="0" allow="bicycle" speed="11.11" length="12.55" width="1.00" shape="855.07,588.98 853.55,591.95 851.80,594.28 849.97,596.58 848.19,599.44"/>
    </edge>
    <edge id=":1617013_6" function="internal">
        <lane id=":1617013_6_0" index="0" disallow="tram rail_urban rail rail_electric rail_fast ship" speed="7.64" length="15.18" shape="854.04,588.58 851.92,592.34 849.22,594.19 845.95,594.16 842.09,592.22"/>
    </edge>
    <edge id=":1617013_7" function="internal">
        <lane id=":1617013_7_0" index="0" disallow="tram rail_urban rail rail_electric rail_fast ship" speed="3.65" length="4.67" shape="854.04,588.58 852.86,589.41 851.97,589.49 851.37,588.83 851.06,587.42"/>
    </edge>
    <edge id=":1617013_8" function="internal">
        <lane id=":1617013_8_0" index="0" disallow="tram rail_urban rail rail_electric rail_fast ship" speed="6.06" length="9.07" shape="843.92,589.59 846.22,590.75 848.18,590.77 849.79,589.66 851.06,587.42"/>
    </edge>
    <edge id=":1617013_9" function="internal">
        <lane id=":1617013_9_0" index="0" disallow="tram rail_urban rail rail_electric rail_fast ship" speed="13.89" length="14.56" shape="843.92,589.59 855.78,598.04"/>
    </edge>
    <edge id=":1617013_10" function="internal">
        <lane id=":1617013_10_0" index="0" allow="bicycle" speed="7.52" length="4.67" width="1.00" shape="843.29,590.50 846.21,592.88 846.77,593.59"/>
    </edge>
    <edge id=":1617013_11" function="internal">
        <lane id=":1617013_11_0" index="0" disallow="tram rail_urban rail rail_electric rail_fast ship" speed="3.65" length="2.34" shape="843.92,589.59 844.45,590.94 844.32,591.82"/>
    </edge>
    <edge id=":1617013_18" function="internal">
        <lane id=":1617013_18_0" index="0" allow="bicycle" speed="7.52" length="6.42" width="1.00" shape="846.77,593.59 848.00,595.16 848.66,597.35 848.19,599.44"/>
    </edge>
    <edge id=":1617013_19" function="internal">
        <lane id=":1617013_19_0" index="0" disallow="tram rail_urban rail rail_electric rail_fast ship" speed="3.65" length="2.34" shape="844.32,591.82 843.53,592.25 842.09,592.22"/>
    </edge>
    <edge id=":1617013_12" function="internal">
        <lane id=":1617013_12_0" index="0" disallow="tram rail_urban rail rail_electric rail_fast ship" speed="6.44" length="8.54" shape="847.28,599.03 847.18,598.15 846.17,596.87 844.27,595.19 841.46,593.12"/>
    </edge>
    <edge id=":1617013_13" function="internal">
        <lane id=":1617013_13_0" index="0" disallow="tram rail_urban rail rail_electric rail_fast ship" speed="11.11" length="12.37" shape="847.28,599.03 848.41,595.93 848.82,593.10 849.16,590.24 850.03,587.02"/>
    </edge>
    <edge id=":1617013_14" function="internal">
        <lane id=":1617013_14_0" index="0" disallow="tram rail_urban rail rail_electric rail_fast ship" speed="6.55" length="11.09" shape="847.28,599.03 849.04,596.57 851.15,595.43 853.62,595.63 856.43,597.15"/>
    </edge>
    <edge id=":1617013_15" function="internal">
        <lane id=":1617013_15_0" index="0" allow="bicycle" speed="2.04" length="1.46" width="1.00" shape="847.28,599.03 847.66,598.79 847.94,598.78 848.12,598.99 848.19,599.44"/>
    </edge>
    <edge id=":1670872_0" function="internal">
        <lane id=":1670872_0_0" index="0" disallow="tram rail_urban rail rail_electric rail_fast ship" speed="16.67" length="8.87" shape="1045.05,718.52 1043.60,716.33 1042.51,714.89 1041.21,713.64 1039.14,712.02"/>
    </edge>
    <edge id=":1670872_1" function="internal">
        <lane id=":1670872_1_0" index="0" disallow="tram rail_urban rail rail_electric rail_fast ship" speed="19.44" length="9.50" shape="1045.05,718.52 1044.00,716.01 1044.14,714.02 1044.54,711.90 1044.27,709.04"/>
        <lane id=":1670872_1_1" index="1" disallow="tram rail_urban rail rail_electric rail_fast ship" speed="19.44" length="9.50" shape="1047.72,716.76 1046.77,714.38 1046.99,712.49 1047.46,710.49 1047.25,707.77"/>
    </edge>
    <edge id=":1670872_3" function="internal">
        <lane id=":1670872_3_0" index="0" disallow="tram rail_urban rail rail_electric rail_fast ship" speed="3.65" length="2.65" shape="1047.72,716.76 1047.73,715.32 1048.18,714.54 1048.49,714.51"/>
    </edge>
    <edge id=":1670872_6" function="internal">
        <lane id=":1670872_6_0" index="0" disallow="tram rail_urban rail rail_electric rail_fast ship" speed="3.65" length="2.02" shape="1048.49,714.51 1049.07,714.44 1050.40,715.00"/>
    </edge>
    <edge id=":1670872_4" function="internal">
        <lane id=":1670872_4_0" index="0" disallow="tram rail_urban rail rail_electric rail_fast ship" speed="19.44" length="8.51" shape="1053.20,705.24 1053.30,707.65 1052.69,709.44 1052.30,711.12 1053.07,713.23"/>
        <lane id=":1670872_4_1" index="1" disallow="tram rail_urban rail rail_electric rail_fast ship" speed="19.44" length="8.51" shape="1050.22,706.51 1050.38,709.07 1049.84,710.96 1049.53,712.75 1050.40,715.00"/>
    </edge>
    <edge id=":1670886_0" function="internal">
        <lane id=":1670886_0_0" index="0" disallow="tram rail_urban rail rail_electric rail_fast ship" speed="11.66" length="7.46" shape="1030.28,706.99 1028.33,705.91 1026.95,705.13 1025.51,704.72 1023.36,704.78"/>
    </edge>
    <edge id=":1670886_1" function="internal">
        <lane id=":1670886_1_0" index="0" disallow="tram rail_urban rail rail_electric rail_fast ship" speed="13.89" length="7.49" shape="1030.60,702.92 1028.48,703.61 1027.03,704.10 1025.56,704.46 1023.36,704.78"/>
    </edge>
    <edge id=":1670914_0" function="internal">
        <lane id=":1670914_0_0" index="0" disallow="tram rail_urban rail rail_electric rail_fast ship" speed="13.89" length="6.10" shape="989.99,699.36 988.33,698.65 987.21,698.10 986.16,697.45 984.69,696.40"/>
    </edge>
    <edge id=":1670914_1" function="internal">
        <lane id=":1670914_1_0" index="0" disallow="tram rail_urban rail rail_electric rail_fast ship" speed="3.65" length="2.34" shape="989.99,699.36 989.20,698.15 989.15,697.26"/>
    </edge>
    <edge id=":1670914_4" function="internal">